/*---------------------------------------------------------------------------*\
| =========                 |                                                 |
| \\      /  F ield         | OpenFOAM: The Open Source CFD Toolbox           |
|  \\    /   O peration     | Version:  2206                                  |
|   \\  /    A nd           | Website:  www.openfoam.com                      |
|    \\/     M anipulation  |                                                 |
\*---------------------------------------------------------------------------*/
Build  : _da9441b0-20260127 OPENFOAM=2206 patch=260127 version=2206
Arch   : "LSB;label=32;scalar=64"
Exec   : simpleFoam
Date   : Jun 12 2026
Time   : 12:56:27
Host   : NotebookdoDan
PID    : 119956
I/O    : uncollated
Case   : /home/danilom/Trabalho_Modelagem_Turbulencia/GT2/RANS/SA_LRN
nProcs : 1
trapFpe: Floating point exception trapping enabled (FOAM_SIGFPE).
fileModificationChecking : Monitoring run-time modified files using timeStampMaster (fileModificationSkew 5, maxFileModificationPolls 20)
allowSystemOperations : Allowing user-supplied system call operations

// * * * * * * * * * * * * * * * * * * * * * * * * * * * * * * * * * * * * * //
Create time

--> FOAM Warning : 
    From static Foam::IOstreamOption::compressionType Foam::IOstreamOption::compressionEnum(const Foam::word&, compressionType)
    in file db/IOstreams/IOstreams/IOstreamOption.C at line 115
    Unknown compression specifier 'uncompressed', using compression off
Create mesh for time = 0


SIMPLE: convergence criteria
    field p	 tolerance 1e-06
    field U	 tolerance 1e-06
    field "(nuTilda)"	 tolerance 1e-06

Reading field p

Reading field U

Reading/calculating face flux field phi

Selecting incompressible transport model Newtonian
Selecting turbulence model type RAS
Selecting RAS turbulence model SpalartAllmaras
Selecting patchDistMethod meshWave
RAS
{
    RASModel        SpalartAllmaras;
    turbulence      on;
    printCoeffs     on;
    sigmaNut        0.66666667;
    kappa           0.41;
    Cb1             0.1355;
    Cb2             0.622;
    Cw2             0.3;
    Cw3             2;
    Cv1             7.1;
    Cs              0.3;
}

No MRF models present

No finite volume options present

Starting time loop

Time = 1

DILUPBiCGStab:  Solving for Ux, Initial residual = 1, Final residual = 1.1781707e-14, No Iterations 3
DILUPBiCGStab:  Solving for Uy, Initial residual = 1, Final residual = 8.2435015e-15, No Iterations 3
DICPCG:  Solving for p, Initial residual = 1, Final residual = 0.0099039491, No Iterations 91
DICPCG:  Solving for p, Initial residual = 1.8665289e-05, Final residual = 1.6053055e-07, No Iterations 22
DICPCG:  Solving for p, Initial residual = 1.6053318e-07, Final residual = 9.8376178e-09, No Iterations 27
time step continuity errors : sum local = 1.011649e-11, global = -1.4879192e-12, cumulative = -1.4879192e-12
DILUPBiCGStab:  Solving for nuTilda, Initial residual = 1, Final residual = 2.8899738e-10, No Iterations 3
ExecutionTime = 0.09 s  ClockTime = 0 s

volFieldValue minmaxdomain_scalar write:

volFieldValue minmaxdomain_vector write:

volFieldValue mindomain_scalar write:
    min(region0) of nuTilda = 7.316634e-07
    min(region0) of nut = 2.3724461e-13

volFieldValue mindomain_vector write:
    min(region0) of U = (0.25747906 -7.9318689e-11 -8.2150699e-16)

volFieldValue maxdomain_scalar write:
    max(region0) of nuTilda = 2.0000093e-06
    max(region0) of nut = 1.3245745e-11

volFieldValue maxdomain_vector write:
    max(region0) of U = (1.0001846 0.00056705339 1.3834409e-15)

Time = 2

DILUPBiCGStab:  Solving for Ux, Initial residual = 0.11362234, Final residual = 2.112354e-10, No Iterations 3
DILUPBiCGStab:  Solving for Uy, Initial residual = 0.094113034, Final residual = 9.6568005e-09, No Iterations 7
DICPCG:  Solving for p, Initial residual = 0.011152856, Final residual = 0.00011019086, No Iterations 85
DICPCG:  Solving for p, Initial residual = 0.00014763264, Final residual = 1.4586543e-06, No Iterations 41
DICPCG:  Solving for p, Initial residual = 1.4585605e-06, Final residual = 1.2999022e-08, No Iterations 77
time step continuity errors : sum local = 1.0078427e-11, global = -2.2718637e-14, cumulative = -1.5106378e-12
DILUPBiCGStab:  Solving for nuTilda, Initial residual = 0.15674064, Final residual = 1.6292475e-10, No Iterations 3
ExecutionTime = 0.14 s  ClockTime = 0 s

volFieldValue minmaxdomain_scalar write:

volFieldValue minmaxdomain_vector write:

volFieldValue mindomain_scalar write:
    min(region0) of nuTilda = 3.981951e-07
    min(region0) of nut = 2.0813005e-14

volFieldValue mindomain_vector write:
    min(region0) of U = (0.12537801 -8.8035186e-08 -3.6581673e-16)

volFieldValue maxdomain_scalar write:
    max(region0) of nuTilda = 2.0000276e-06
    max(region0) of nut = 1.3246228e-11

volFieldValue maxdomain_vector write:
    max(region0) of U = (1.0003423 0.00095655718 5.8807727e-16)

Time = 3

DILUPBiCGStab:  Solving for Ux, Initial residual = 0.048180074, Final residual = 1.8140344e-10, No Iterations 3
DILUPBiCGStab:  Solving for Uy, Initial residual = 0.038220052, Final residual = 3.310341e-09, No Iterations 7
DICPCG:  Solving for p, Initial residual = 0.016180532, Final residual = 0.00015484343, No Iterations 83
DICPCG:  Solving for p, Initial residual = 0.0001701385, Final residual = 1.6946127e-06, No Iterations 67
DICPCG:  Solving for p, Initial residual = 1.6950326e-06, Final residual = 1.6374851e-08, No Iterations 72
time step continuity errors : sum local = 1.1693176e-11, global = 1.5412925e-13, cumulative = -1.3565086e-12
DILUPBiCGStab:  Solving for nuTilda, Initial residual = 0.070571779, Final residual = 1.3097467e-10, No Iterations 3
ExecutionTime = 0.19 s  ClockTime = 0 s

volFieldValue minmaxdomain_scalar write:

volFieldValue minmaxdomain_vector write:

volFieldValue mindomain_scalar write:
    min(region0) of nuTilda = 2.7577172e-07
    min(region0) of nut = 4.7879551e-15

volFieldValue mindomain_vector write:
    min(region0) of U = (0.086314368 -2.9303576e-07 -2.3453294e-16)

volFieldValue maxdomain_scalar write:
    max(region0) of nuTilda = 2.000073e-06
    max(region0) of nut = 1.3247432e-11

volFieldValue maxdomain_vector write:
    max(region0) of U = (1.0004758 0.0013231205 8.3117607e-18)

Time = 4

DILUPBiCGStab:  Solving for Ux, Initial residual = 0.030969294, Final residual = 1.8573198e-10, No Iterations 3
DILUPBiCGStab:  Solving for Uy, Initial residual = 0.025870736, Final residual = 7.4868375e-09, No Iterations 6
DICPCG:  Solving for p, Initial residual = 0.018688246, Final residual = 0.00017968592, No Iterations 83
DICPCG:  Solving for p, Initial residual = 0.00017618863, Final residual = 1.6572277e-06, No Iterations 68
DICPCG:  Solving for p, Initial residual = 1.6568084e-06, Final residual = 1.3994543e-08, No Iterations 76
time step continuity errors : sum local = 1.0335958e-11, global = -4.2773002e-13, cumulative = -1.7842386e-12
DILUPBiCGStab:  Solving for nuTilda, Initial residual = 0.044092568, Final residual = 1.1002234e-10, No Iterations 3
ExecutionTime = 0.24 s  ClockTime = 0 s

volFieldValue minmaxdomain_scalar write:

volFieldValue minmaxdomain_vector write:

volFieldValue mindomain_scalar write:
    min(region0) of nuTilda = 2.1861852e-07
    min(region0) of nut = 1.8910325e-15

volFieldValue mindomain_vector write:
    min(region0) of U = (0.068255241 -3.508612e-07 -1.3303296e-17)

volFieldValue maxdomain_scalar write:
    max(region0) of nuTilda = 2.0001587e-06
    max(region0) of nut = 1.3249702e-11

volFieldValue maxdomain_vector write:
    max(region0) of U = (1.0006588 0.0016989126 5.7371832e-16)

Time = 5

DILUPBiCGStab:  Solving for Ux, Initial residual = 0.02339935, Final residual = 1.824348e-10, No Iterations 3
DILUPBiCGStab:  Solving for Uy, Initial residual = 0.020467587, Final residual = 1.5931193e-09, No Iterations 7
DICPCG:  Solving for p, Initial residual = 0.019200479, Final residual = 0.00014194037, No Iterations 80
DICPCG:  Solving for p, Initial residual = 0.00013455006, Final residual = 1.3137768e-06, No Iterations 63
DICPCG:  Solving for p, Initial residual = 1.3137541e-06, Final residual = 1.2037423e-08, No Iterations 70
time step continuity errors : sum local = 9.5219554e-12, global = -1.9185348e-13, cumulative = -1.9760921e-12
DILUPBiCGStab:  Solving for nuTilda, Initial residual = 0.032408075, Final residual = 9.5725302e-11, No Iterations 3
ExecutionTime = 0.29 s  ClockTime = 0 s

volFieldValue minmaxdomain_scalar write:

volFieldValue minmaxdomain_vector write:

volFieldValue mindomain_scalar write:
    min(region0) of nuTilda = 1.8562722e-07
    min(region0) of nut = 9.8291911e-16

volFieldValue mindomain_vector write:
    min(region0) of U = (0.05737741 -5.9415173e-07 -1.8809779e-17)

volFieldValue maxdomain_scalar write:
    max(region0) of nuTilda = 2.0002658e-06
    max(region0) of nut = 1.3252539e-11

volFieldValue maxdomain_vector write:
    max(region0) of U = (1.0007899 0.0021009523 2.8736703e-16)

Time = 6

DILUPBiCGStab:  Solving for Ux, Initial residual = 0.019005482, Final residual = 1.7501151e-10, No Iterations 3
DILUPBiCGStab:  Solving for Uy, Initial residual = 0.01666663, Final residual = 5.7433546e-09, No Iterations 6
DICPCG:  Solving for p, Initial residual = 0.019000417, Final residual = 0.00018164208, No Iterations 80
DICPCG:  Solving for p, Initial residual = 0.00016965389, Final residual = 1.5047789e-06, No Iterations 76
DICPCG:  Solving for p, Initial residual = 1.5041169e-06, Final residual = 1.2703986e-08, No Iterations 74
time step continuity errors : sum local = 1.0930928e-11, global = -9.2809914e-14, cumulative = -2.068902e-12
DILUPBiCGStab:  Solving for nuTilda, Initial residual = 0.025878044, Final residual = 8.4028811e-11, No Iterations 3
ExecutionTime = 0.34 s  ClockTime = 0 s

volFieldValue minmaxdomain_scalar write:

volFieldValue minmaxdomain_vector write:

volFieldValue mindomain_scalar write:
    min(region0) of nuTilda = 1.6356462e-07
    min(region0) of nut = 5.9252771e-16

volFieldValue mindomain_vector write:
    min(region0) of U = (0.049848505 -1.0567409e-06 -2.4478019e-17)

volFieldValue maxdomain_scalar write:
    max(region0) of nuTilda = 2.0003897e-06
    max(region0) of nut = 1.3255824e-11

volFieldValue maxdomain_vector write:
    max(region0) of U = (1.0009057 0.0025387431 2.2955861e-16)

Time = 7

DILUPBiCGStab:  Solving for Ux, Initial residual = 0.016059893, Final residual = 1.6916154e-10, No Iterations 3
DILUPBiCGStab:  Solving for Uy, Initial residual = 0.014308967, Final residual = 5.3591905e-09, No Iterations 6
DICPCG:  Solving for p, Initial residual = 0.01846296, Final residual = 0.00016270388, No Iterations 85
DICPCG:  Solving for p, Initial residual = 0.00015004181, Final residual = 1.4946873e-06, No Iterations 45
DICPCG:  Solving for p, Initial residual = 1.4945278e-06, Final residual = 1.3665543e-08, No Iterations 70
time step continuity errors : sum local = 1.2947131e-11, global = 1.689135e-13, cumulative = -1.8999885e-12
DILUPBiCGStab:  Solving for nuTilda, Initial residual = 0.021644256, Final residual = 7.2758017e-11, No Iterations 3
ExecutionTime = 0.38 s  ClockTime = 0 s

volFieldValue minmaxdomain_scalar write:

volFieldValue minmaxdomain_vector write:

volFieldValue mindomain_scalar write:
    min(region0) of nuTilda = 1.4737488e-07
    min(region0) of nut = 3.9052155e-16

volFieldValue mindomain_vector write:
    min(region0) of U = (0.044210612 -1.6880925e-06 -3.0224396e-17)

volFieldValue maxdomain_scalar write:
    max(region0) of nuTilda = 2.0005284e-06
    max(region0) of nut = 1.3259502e-11

volFieldValue maxdomain_vector write:
    max(region0) of U = (1.0011169 0.0030188065 1.9144168e-16)

Time = 8

DILUPBiCGStab:  Solving for Ux, Initial residual = 0.013918105, Final residual = 1.768692e-10, No Iterations 3
DILUPBiCGStab:  Solving for Uy, Initial residual = 0.012618558, Final residual = 4.5932686e-09, No Iterations 6
DICPCG:  Solving for p, Initial residual = 0.017778187, Final residual = 0.00016462302, No Iterations 85
DICPCG:  Solving for p, Initial residual = 0.00015053015, Final residual = 1.3901573e-06, No Iterations 45
DICPCG:  Solving for p, Initial residual = 1.390011e-06, Final residual = 1.1780958e-08, No Iterations 70
time step continuity errors : sum local = 1.239134e-11, global = -3.142224e-14, cumulative = -1.9314107e-12
DILUPBiCGStab:  Solving for nuTilda, Initial residual = 0.018638987, Final residual = 6.2795952e-11, No Iterations 3
ExecutionTime = 0.42 s  ClockTime = 0 s

volFieldValue minmaxdomain_scalar write:

volFieldValue minmaxdomain_vector write:

volFieldValue mindomain_scalar write:
    min(region0) of nuTilda = 1.3476904e-07
    min(region0) of nut = 2.7309369e-16

volFieldValue mindomain_vector write:
    min(region0) of U = (0.039772667 -2.4823874e-06 -3.1750135e-17)

volFieldValue maxdomain_scalar write:
    max(region0) of nuTilda = 2.0006765e-06
    max(region0) of nut = 1.3263427e-11

volFieldValue maxdomain_vector write:
    max(region0) of U = (1.0013204 0.0035467391 1.6465696e-16)

Time = 9

DILUPBiCGStab:  Solving for Ux, Initial residual = 0.012276784, Final residual = 1.9969127e-10, No Iterations 3
DILUPBiCGStab:  Solving for Uy, Initial residual = 0.011486003, Final residual = 4.2834479e-09, No Iterations 6
DICPCG:  Solving for p, Initial residual = 0.017053691, Final residual = 0.00015945499, No Iterations 85
DICPCG:  Solving for p, Initial residual = 0.00014496819, Final residual = 1.3284813e-06, No Iterations 45
DICPCG:  Solving for p, Initial residual = 1.3283511e-06, Final residual = 1.2727635e-08, No Iterations 57
time step continuity errors : sum local = 1.4942416e-11, global = 8.7305672e-13, cumulative = -1.058354e-12
DILUPBiCGStab:  Solving for nuTilda, Initial residual = 0.016375517, Final residual = 5.5265236e-11, No Iterations 3
ExecutionTime = 0.46 s  ClockTime = 0 s

volFieldValue minmaxdomain_scalar write:

volFieldValue minmaxdomain_vector write:

volFieldValue mindomain_scalar write:
    min(region0) of nuTilda = 1.2455325e-07
    min(region0) of nut = 1.9923767e-16

volFieldValue mindomain_vector write:
    min(region0) of U = (0.036156649 -3.3709533e-06 -2.9850819e-17)

volFieldValue maxdomain_scalar write:
    max(region0) of nuTilda = 2.0008382e-06
    max(region0) of nut = 1.3267717e-11

volFieldValue maxdomain_vector write:
    max(region0) of U = (1.0014039 0.004124715 1.4461159e-16)

Time = 10

DILUPBiCGStab:  Solving for Ux, Initial residual = 0.010971831, Final residual = 2.3652497e-10, No Iterations 3
DILUPBiCGStab:  Solving for Uy, Initial residual = 0.01064418, Final residual = 4.1934288e-09, No Iterations 6
DICPCG:  Solving for p, Initial residual = 0.016268639, Final residual = 0.00015391795, No Iterations 85
DICPCG:  Solving for p, Initial residual = 0.00013942492, Final residual = 1.3881434e-06, No Iterations 44
DICPCG:  Solving for p, Initial residual = 1.3880102e-06, Final residual = 1.2397203e-08, No Iterations 74
time step continuity errors : sum local = 1.6297758e-11, global = 5.0411681e-14, cumulative = -1.0079423e-12
DILUPBiCGStab:  Solving for nuTilda, Initial residual = 0.014616143, Final residual = 5.0572355e-11, No Iterations 3
ExecutionTime = 0.51 s  ClockTime = 0 s

volFieldValue minmaxdomain_scalar write:

volFieldValue minmaxdomain_vector write:

volFieldValue mindomain_scalar write:
    min(region0) of nuTilda = 1.1603411e-07
    min(region0) of nut = 1.5007e-16

volFieldValue mindomain_vector write:
    min(region0) of U = (0.033134823 -4.2186161e-06 -3.3237363e-17)

volFieldValue maxdomain_scalar write:
    max(region0) of nuTilda = 2.0010138e-06
    max(region0) of nut = 1.3272375e-11

volFieldValue maxdomain_vector write:
    max(region0) of U = (1.0016593 0.0047549989 1.2878797e-16)

Time = 11

DILUPBiCGStab:  Solving for Ux, Initial residual = 0.0099056549, Final residual = 2.8846325e-10, No Iterations 3
DILUPBiCGStab:  Solving for Uy, Initial residual = 0.010033846, Final residual = 3.6159037e-09, No Iterations 6
DICPCG:  Solving for p, Initial residual = 0.015492948, Final residual = 0.00014768684, No Iterations 85
DICPCG:  Solving for p, Initial residual = 0.00013347297, Final residual = 1.2797322e-06, No Iterations 44
DICPCG:  Solving for p, Initial residual = 1.2796036e-06, Final residual = 1.2134941e-08, No Iterations 74
time step continuity errors : sum local = 1.7897486e-11, global = 1.3825781e-13, cumulative = -8.6968451e-13
DILUPBiCGStab:  Solving for nuTilda, Initial residual = 0.013226147, Final residual = 4.671255e-11, No Iterations 3
ExecutionTime = 0.55 s  ClockTime = 0 s

volFieldValue minmaxdomain_scalar write:

volFieldValue minmaxdomain_vector write:

volFieldValue mindomain_scalar write:
    min(region0) of nuTilda = 1.0877553e-07
    min(region0) of nut = 1.1589803e-16

volFieldValue mindomain_vector write:
    min(region0) of U = (0.030560179 -4.9024499e-06 -3.6870493e-17)

volFieldValue maxdomain_scalar write:
    max(region0) of nuTilda = 2.0012007e-06
    max(region0) of nut = 1.3277333e-11

volFieldValue maxdomain_vector write:
    max(region0) of U = (1.0018819 0.0054385064 1.1579486e-16)

Time = 12

DILUPBiCGStab:  Solving for Ux, Initial residual = 0.0090159773, Final residual = 3.4932944e-10, No Iterations 3
DILUPBiCGStab:  Solving for Uy, Initial residual = 0.0095438368, Final residual = 3.3563812e-09, No Iterations 6
DICPCG:  Solving for p, Initial residual = 0.01473853, Final residual = 0.00014397263, No Iterations 85
DICPCG:  Solving for p, Initial residual = 0.00012996429, Final residual = 1.2554413e-06, No Iterations 44
DICPCG:  Solving for p, Initial residual = 1.2553267e-06, Final residual = 1.1948214e-08, No Iterations 74
time step continuity errors : sum local = 1.9784844e-11, global = 2.2367958e-13, cumulative = -6.4600493e-13
DILUPBiCGStab:  Solving for nuTilda, Initial residual = 0.01208512, Final residual = 4.5207933e-11, No Iterations 3
ExecutionTime = 0.59 s  ClockTime = 0 s

volFieldValue minmaxdomain_scalar write:

volFieldValue minmaxdomain_vector write:

volFieldValue mindomain_scalar write:
    min(region0) of nuTilda = 1.0248651e-07
    min(region0) of nut = 9.1330944e-17

volFieldValue mindomain_vector write:
    min(region0) of U = (0.02833275 -5.4191878e-06 -4.0810748e-17)

volFieldValue maxdomain_scalar write:
    max(region0) of nuTilda = 2.0013989e-06
    max(region0) of nut = 1.3282595e-11

volFieldValue maxdomain_vector write:
    max(region0) of U = (1.0021117 0.0061724519 1.0483798e-16)

Time = 13

DILUPBiCGStab:  Solving for Ux, Initial residual = 0.0082609978, Final residual = 4.1897749e-10, No Iterations 3
DILUPBiCGStab:  Solving for Uy, Initial residual = 0.0091436955, Final residual = 3.1930211e-09, No Iterations 6
DICPCG:  Solving for p, Initial residual = 0.014023161, Final residual = 9.9216775e-05, No Iterations 86
DICPCG:  Solving for p, Initial residual = 8.9544446e-05, Final residual = 8.1300026e-07, No Iterations 44
DICPCG:  Solving for p, Initial residual = 8.1293589e-07, Final residual = 8.7691742e-09, No Iterations 75
time step continuity errors : sum local = 1.6299185e-11, global = 3.9386824e-13, cumulative = -2.521367e-13
DILUPBiCGStab:  Solving for nuTilda, Initial residual = 0.011130739, Final residual = 4.0133931e-11, No Iterations 3
ExecutionTime = 0.63 s  ClockTime = 1 s

volFieldValue minmaxdomain_scalar write:

volFieldValue minmaxdomain_vector write:

volFieldValue mindomain_scalar write:
    min(region0) of nuTilda = 9.6963763e-08
    min(region0) of nut = 7.3179431e-17

volFieldValue mindomain_vector write:
    min(region0) of U = (0.026381727 -5.6582975e-06 -4.4838164e-17)

volFieldValue maxdomain_scalar write:
    max(region0) of nuTilda = 2.0017052e-06
    max(region0) of nut = 1.3290727e-11

volFieldValue maxdomain_vector write:
    max(region0) of U = (1.0023558 0.0069544593 9.5437557e-17)

Time = 14

DILUPBiCGStab:  Solving for Ux, Initial residual = 0.0076115796, Final residual = 4.9489128e-10, No Iterations 3
DILUPBiCGStab:  Solving for Uy, Initial residual = 0.0087774933, Final residual = 3.2666004e-09, No Iterations 6
DICPCG:  Solving for p, Initial residual = 0.013341868, Final residual = 9.581229e-05, No Iterations 86
DICPCG:  Solving for p, Initial residual = 8.6529857e-05, Final residual = 7.8568403e-07, No Iterations 44
DICPCG:  Solving for p, Initial residual = 7.856241e-07, Final residual = 9.5172336e-09, No Iterations 74
time step continuity errors : sum local = 1.9833978e-11, global = 6.9656365e-13, cumulative = 4.4442696e-13
DILUPBiCGStab:  Solving for nuTilda, Initial residual = 0.010315209, Final residual = 3.4377697e-11, No Iterations 3
ExecutionTime = 0.68 s  ClockTime = 1 s

volFieldValue minmaxdomain_scalar write:

volFieldValue minmaxdomain_vector write:

volFieldValue mindomain_scalar write:
    min(region0) of nuTilda = 9.2060119e-08
    min(region0) of nut = 5.9461696e-17

volFieldValue mindomain_vector write:
    min(region0) of U = (0.02465528 -5.6080529e-06 -4.9002875e-17)

volFieldValue maxdomain_scalar write:
    max(region0) of nuTilda = 2.0021086e-06
    max(region0) of nut = 1.3301444e-11

volFieldValue maxdomain_vector write:
    max(region0) of U = (1.0026086 0.0077835025 8.7282147e-17)

Time = 15

DILUPBiCGStab:  Solving for Ux, Initial residual = 0.0070465533, Final residual = 5.7561317e-10, No Iterations 3
DILUPBiCGStab:  Solving for Uy, Initial residual = 0.0084519229, Final residual = 3.5353249e-09, No Iterations 6
DICPCG:  Solving for p, Initial residual = 0.012651019, Final residual = 9.1786313e-05, No Iterations 86
DICPCG:  Solving for p, Initial residual = 8.3008945e-05, Final residual = 7.4902787e-07, No Iterations 44
DICPCG:  Solving for p, Initial residual = 7.4897384e-07, Final residual = 8.6812445e-09, No Iterations 74
time step continuity errors : sum local = 2.0247815e-11, global = 7.0180698e-13, cumulative = 1.1462339e-12
DILUPBiCGStab:  Solving for nuTilda, Initial residual = 0.0096092763, Final residual = 3.2135947e-11, No Iterations 3
ExecutionTime = 0.72 s  ClockTime = 1 s

volFieldValue minmaxdomain_scalar write:

volFieldValue minmaxdomain_vector write:

volFieldValue mindomain_scalar write:
    min(region0) of nuTilda = 8.7665835e-08
    min(region0) of nut = 4.8895925e-17

volFieldValue mindomain_vector write:
    min(region0) of U = (0.023114424 -5.3780155e-06 -5.3254743e-17)

volFieldValue maxdomain_scalar write:
    max(region0) of nuTilda = 2.0025833e-06
    max(region0) of nut = 1.3314065e-11

volFieldValue maxdomain_vector write:
    max(region0) of U = (1.0028583 0.0086506428 8.0153466e-17)

Time = 16

DILUPBiCGStab:  Solving for Ux, Initial residual = 0.0065501793, Final residual = 6.5907395e-10, No Iterations 3
DILUPBiCGStab:  Solving for Uy, Initial residual = 0.0081486295, Final residual = 3.7855246e-09, No Iterations 6
DICPCG:  Solving for p, Initial residual = 0.011985382, Final residual = 8.751494e-05, No Iterations 86
DICPCG:  Solving for p, Initial residual = 7.9302226e-05, Final residual = 7.1107648e-07, No Iterations 44
DICPCG:  Solving for p, Initial residual = 7.1102677e-07, Final residual = 9.7949094e-09, No Iterations 73
time step continuity errors : sum local = 2.550276e-11, global = 1.0465541e-12, cumulative = 2.1927881e-12
DILUPBiCGStab:  Solving for nuTilda, Initial residual = 0.0089896621, Final residual = 3.266778e-11, No Iterations 3
ExecutionTime = 0.76 s  ClockTime = 1 s

volFieldValue minmaxdomain_scalar write:

volFieldValue minmaxdomain_vector write:

volFieldValue mindomain_scalar write:
    min(region0) of nuTilda = 8.3697083e-08
    min(region0) of nut = 4.0624914e-17

volFieldValue mindomain_vector write:
    min(region0) of U = (0.021729168 -4.9437587e-06 -5.7523275e-17)

volFieldValue maxdomain_scalar write:
    max(region0) of nuTilda = 2.0030918e-06
    max(region0) of nut = 1.3327594e-11

volFieldValue maxdomain_vector write:
    max(region0) of U = (1.003053 0.0095506183 7.388784e-17)

Time = 17

DILUPBiCGStab:  Solving for Ux, Initial residual = 0.0061102834, Final residual = 7.4161978e-10, No Iterations 3
DILUPBiCGStab:  Solving for Uy, Initial residual = 0.0078626171, Final residual = 3.5127004e-09, No Iterations 6
DICPCG:  Solving for p, Initial residual = 0.011315952, Final residual = 8.3124337e-05, No Iterations 86
DICPCG:  Solving for p, Initial residual = 7.5500463e-05, Final residual = 6.6450713e-07, No Iterations 44
DICPCG:  Solving for p, Initial residual = 6.6446389e-07, Final residual = 9.0434427e-09, No Iterations 73
time step continuity errors : sum local = 2.6207341e-11, global = 9.2359758e-13, cumulative = 3.1163856e-12
DILUPBiCGStab:  Solving for nuTilda, Initial residual = 0.0084439414, Final residual = 3.3430008e-11, No Iterations 3
ExecutionTime = 0.81 s  ClockTime = 1 s

volFieldValue minmaxdomain_scalar write:

volFieldValue minmaxdomain_vector write:

volFieldValue mindomain_scalar write:
    min(region0) of nuTilda = 8.0088499e-08
    min(region0) of nut = 3.4058993e-17

volFieldValue mindomain_vector write:
    min(region0) of U = (0.020475982 -4.3454126e-06 -6.1667758e-17)

volFieldValue maxdomain_scalar write:
    max(region0) of nuTilda = 2.0036327e-06
    max(region0) of nut = 1.3341994e-11

volFieldValue maxdomain_vector write:
    max(region0) of U = (1.003303 0.01048678 6.8356352e-17)

Time = 18

DILUPBiCGStab:  Solving for Ux, Initial residual = 0.0057177477, Final residual = 8.279041e-10, No Iterations 3
DILUPBiCGStab:  Solving for Uy, Initial residual = 0.0075799768, Final residual = 3.4394485e-09, No Iterations 6
DICPCG:  Solving for p, Initial residual = 0.010677631, Final residual = 7.8130448e-05, No Iterations 86
DICPCG:  Solving for p, Initial residual = 7.1151715e-05, Final residual = 6.2138057e-07, No Iterations 44
DICPCG:  Solving for p, Initial residual = 6.2134108e-07, Final residual = 8.4903855e-09, No Iterations 73
time step continuity errors : sum local = 2.7296187e-11, global = 7.2511947e-13, cumulative = 3.8415051e-12
DILUPBiCGStab:  Solving for nuTilda, Initial residual = 0.0079559942, Final residual = 3.4401043e-11, No Iterations 3
ExecutionTime = 0.86 s  ClockTime = 1 s

volFieldValue minmaxdomain_scalar write:

volFieldValue minmaxdomain_vector write:

volFieldValue mindomain_scalar write:
    min(region0) of nuTilda = 7.6788219e-08
    min(region0) of nut = 2.878257e-17

volFieldValue mindomain_vector write:
    min(region0) of U = (0.0193361 -3.7754493e-06 -6.5793164e-17)

volFieldValue maxdomain_scalar write:
    max(region0) of nuTilda = 2.0042038e-06
    max(region0) of nut = 1.335721e-11

volFieldValue maxdomain_vector write:
    max(region0) of U = (1.0035555 0.011447048 6.3454068e-17)

Time = 19

DILUPBiCGStab:  Solving for Ux, Initial residual = 0.0053653315, Final residual = 9.1441017e-10, No Iterations 3
DILUPBiCGStab:  Solving for Uy, Initial residual = 0.0073079678, Final residual = 3.0248013e-09, No Iterations 6
DICPCG:  Solving for p, Initial residual = 0.010067193, Final residual = 7.4092937e-05, No Iterations 86
DICPCG:  Solving for p, Initial residual = 6.7659088e-05, Final residual = 6.5896167e-07, No Iterations 43
DICPCG:  Solving for p, Initial residual = 6.5892286e-07, Final residual = 7.1253993e-09, No Iterations 73
time step continuity errors : sum local = 2.5330204e-11, global = -5.3738271e-13, cumulative = 3.3041224e-12
DILUPBiCGStab:  Solving for nuTilda, Initial residual = 0.0075165432, Final residual = 3.5291013e-11, No Iterations 3
ExecutionTime = 0.9 s  ClockTime = 1 s

volFieldValue minmaxdomain_scalar write:

volFieldValue minmaxdomain_vector write:

volFieldValue mindomain_scalar write:
    min(region0) of nuTilda = 7.3754455e-08
    min(region0) of nut = 2.449651e-17

volFieldValue mindomain_vector write:
    min(region0) of U = (0.018294333 -3.2380345e-06 -6.9905908e-17)

volFieldValue maxdomain_scalar write:
    max(region0) of nuTilda = 2.0048033e-06
    max(region0) of nut = 1.3373201e-11

volFieldValue maxdomain_vector write:
    max(region0) of U = (1.0038032 0.012425528 5.9093846e-17)

Time = 20

DILUPBiCGStab:  Solving for Ux, Initial residual = 0.0050471066, Final residual = 9.9604555e-10, No Iterations 3
DILUPBiCGStab:  Solving for Uy, Initial residual = 0.0070455165, Final residual = 9.1568514e-09, No Iterations 6
DICPCG:  Solving for p, Initial residual = 0.0094869401, Final residual = 6.9448452e-05, No Iterations 86
DICPCG:  Solving for p, Initial residual = 6.3592929e-05, Final residual = 6.1022047e-07, No Iterations 43
DICPCG:  Solving for p, Initial residual = 6.1018605e-07, Final residual = 9.3618383e-09, No Iterations 72
time step continuity errors : sum local = 3.6678742e-11, global = -2.2738612e-13, cumulative = 3.0767363e-12
DILUPBiCGStab:  Solving for nuTilda, Initial residual = 0.0071203964, Final residual = 3.6274114e-11, No Iterations 3
ExecutionTime = 0.94 s  ClockTime = 1 s

volFieldValue minmaxdomain_scalar write:

volFieldValue minmaxdomain_vector write:

volFieldValue mindomain_scalar write:
    min(region0) of nuTilda = 7.0953088e-08
    min(region0) of nut = 2.0981493e-17

volFieldValue mindomain_vector write:
    min(region0) of U = (0.017338232 -3.0520281e-06 -7.3970371e-17)

volFieldValue maxdomain_scalar write:
    max(region0) of nuTilda = 2.0054295e-06
    max(region0) of nut = 1.3389917e-11

volFieldValue maxdomain_vector write:
    max(region0) of U = (1.0040458 0.013417146 5.5202465e-17)

Time = 21

DILUPBiCGStab:  Solving for Ux, Initial residual = 0.0047582003, Final residual = 1.0692857e-09, No Iterations 3
DILUPBiCGStab:  Solving for Uy, Initial residual = 0.0067910339, Final residual = 8.3040422e-09, No Iterations 6
DICPCG:  Solving for p, Initial residual = 0.0089250434, Final residual = 6.4915123e-05, No Iterations 86
DICPCG:  Solving for p, Initial residual = 5.960713e-05, Final residual = 5.9394957e-07, No Iterations 41
DICPCG:  Solving for p, Initial residual = 5.939175e-07, Final residual = 9.2092358e-09, No Iterations 66
time step continuity errors : sum local = 3.9632612e-11, global = 2.0101266e-12, cumulative = 5.0868628e-12
DILUPBiCGStab:  Solving for nuTilda, Initial residual = 0.006760952, Final residual = 3.7581564e-11, No Iterations 3
ExecutionTime = 0.99 s  ClockTime = 1 s

volFieldValue minmaxdomain_scalar write:

volFieldValue minmaxdomain_vector write:

volFieldValue mindomain_scalar write:
    min(region0) of nuTilda = 6.8355933e-08
    min(region0) of nut = 1.8074073e-17

volFieldValue mindomain_vector write:
    min(region0) of U = (0.016457476 -2.7666009e-06 -7.7883753e-17)

volFieldValue maxdomain_scalar write:
    max(region0) of nuTilda = 2.0135616e-06
    max(region0) of nut = 1.3608428e-11

volFieldValue maxdomain_vector write:
    max(region0) of U = (1.0042801 0.014417525 5.1717939e-17)

Time = 22

DILUPBiCGStab:  Solving for Ux, Initial residual = 0.0044949099, Final residual = 1.1408393e-09, No Iterations 3
DILUPBiCGStab:  Solving for Uy, Initial residual = 0.0065398676, Final residual = 7.8780741e-09, No Iterations 6
DICPCG:  Solving for p, Initial residual = 0.0083904227, Final residual = 8.2822995e-05, No Iterations 85
DICPCG:  Solving for p, Initial residual = 7.6260334e-05, Final residual = 7.527841e-07, No Iterations 42
DICPCG:  Solving for p, Initial residual = 7.5273671e-07, Final residual = 9.4738809e-09, No Iterations 74
time step continuity errors : sum local = 4.4638387e-11, global = -1.0740066e-12, cumulative = 4.0128562e-12
DILUPBiCGStab:  Solving for nuTilda, Initial residual = 0.0064318006, Final residual = 3.9167006e-11, No Iterations 3
ExecutionTime = 1.03 s  ClockTime = 1 s

volFieldValue minmaxdomain_scalar write:

volFieldValue minmaxdomain_vector write:

volFieldValue mindomain_scalar write:
    min(region0) of nuTilda = 6.593946e-08
    min(region0) of nut = 1.5650662e-17

volFieldValue mindomain_vector write:
    min(region0) of U = (0.015643425 -2.499445e-06 -8.1722947e-17)

volFieldValue maxdomain_scalar write:
    max(region0) of nuTilda = 2.0255261e-06
    max(region0) of nut = 1.3934762e-11

volFieldValue maxdomain_vector write:
    max(region0) of U = (1.0045007 0.015422043 4.8587556e-17)

Time = 23

DILUPBiCGStab:  Solving for Ux, Initial residual = 0.0042539304, Final residual = 1.2052444e-09, No Iterations 3
DILUPBiCGStab:  Solving for Uy, Initial residual = 0.0062965466, Final residual = 7.9241915e-09, No Iterations 6
DICPCG:  Solving for p, Initial residual = 0.0078869758, Final residual = 7.686205e-05, No Iterations 85
DICPCG:  Solving for p, Initial residual = 7.0959406e-05, Final residual = 7.0078551e-07, No Iterations 41
DICPCG:  Solving for p, Initial residual = 7.00743e-07, Final residual = 9.6564517e-09, No Iterations 68
time step continuity errors : sum local = 4.9657777e-11, global = 3.2430012e-12, cumulative = 7.2558575e-12
DILUPBiCGStab:  Solving for nuTilda, Initial residual = 0.0061294809, Final residual = 4.0876724e-11, No Iterations 3
ExecutionTime = 1.07 s  ClockTime = 1 s

volFieldValue minmaxdomain_scalar write:

volFieldValue minmaxdomain_vector write:

volFieldValue mindomain_scalar write:
    min(region0) of nuTilda = 6.3683839e-08
    min(region0) of nut = 1.3616583e-17

volFieldValue mindomain_vector write:
    min(region0) of U = (0.014888776 -2.1594355e-06 -8.5552155e-17)

volFieldValue maxdomain_scalar write:
    max(region0) of nuTilda = 2.0420835e-06
    max(region0) of nut = 1.4396009e-11

volFieldValue maxdomain_vector write:
    max(region0) of U = (1.0047058 0.016433074 4.5766336e-17)

Time = 24

DILUPBiCGStab:  Solving for Ux, Initial residual = 0.0040325008, Final residual = 1.2633614e-09, No Iterations 3
DILUPBiCGStab:  Solving for Uy, Initial residual = 0.0060609785, Final residual = 8.8296649e-09, No Iterations 6
DICPCG:  Solving for p, Initial residual = 0.0074149722, Final residual = 7.0891643e-05, No Iterations 85
DICPCG:  Solving for p, Initial residual = 6.5615798e-05, Final residual = 6.2783519e-07, No Iterations 41
DICPCG:  Solving for p, Initial residual = 6.2780064e-07, Final residual = 9.2226491e-09, No Iterations 67
time step continuity errors : sum local = 5.1604803e-11, global = 3.4679306e-12, cumulative = 1.0723788e-11
DILUPBiCGStab:  Solving for nuTilda, Initial residual = 0.0058527922, Final residual = 4.2896206e-11, No Iterations 3
ExecutionTime = 1.12 s  ClockTime = 1 s

volFieldValue minmaxdomain_scalar write:

volFieldValue minmaxdomain_vector write:

volFieldValue mindomain_scalar write:
    min(region0) of nuTilda = 6.1572222e-08
    min(region0) of nut = 1.1898453e-17

volFieldValue mindomain_vector write:
    min(region0) of U = (0.014187309 -1.8424807e-06 -8.9339863e-17)

volFieldValue maxdomain_scalar write:
    max(region0) of nuTilda = 2.0594441e-06
    max(region0) of nut = 1.489183e-11

volFieldValue maxdomain_vector write:
    max(region0) of U = (1.0048969 0.01744533 4.5185285e-17)

Time = 25

DILUPBiCGStab:  Solving for Ux, Initial residual = 0.0038284667, Final residual = 1.3095392e-09, No Iterations 3
DILUPBiCGStab:  Solving for Uy, Initial residual = 0.0058335824, Final residual = 3.3459791e-09, No Iterations 6
DICPCG:  Solving for p, Initial residual = 0.0069723561, Final residual = 6.3915803e-05, No Iterations 85
DICPCG:  Solving for p, Initial residual = 5.9307301e-05, Final residual = 5.8354951e-07, No Iterations 38
DICPCG:  Solving for p, Initial residual = 5.8351777e-07, Final residual = 9.4298218e-09, No Iterations 68
time step continuity errors : sum local = 5.7242462e-11, global = -4.7216588e-12, cumulative = 6.0021293e-12
DILUPBiCGStab:  Solving for nuTilda, Initial residual = 0.0055973432, Final residual = 4.5145288e-11, No Iterations 3
ExecutionTime = 1.16 s  ClockTime = 1 s

volFieldValue minmaxdomain_scalar write:

volFieldValue minmaxdomain_vector write:

volFieldValue mindomain_scalar write:
    min(region0) of nuTilda = 5.959018e-08
    min(region0) of nut = 1.0438785e-17

volFieldValue mindomain_vector write:
    min(region0) of U = (0.013533687 -1.55245e-06 -9.3136847e-17)

volFieldValue maxdomain_scalar write:
    max(region0) of nuTilda = 2.079501e-06
    max(region0) of nut = 1.5480482e-11

volFieldValue maxdomain_vector write:
    max(region0) of U = (1.0050759 0.018453113 4.7004395e-17)

Time = 26

DILUPBiCGStab:  Solving for Ux, Initial residual = 0.0036397909, Final residual = 1.3531445e-09, No Iterations 3
DILUPBiCGStab:  Solving for Uy, Initial residual = 0.0056157151, Final residual = 4.6367951e-09, No Iterations 6
DICPCG:  Solving for p, Initial residual = 0.0065632292, Final residual = 6.0087231e-05, No Iterations 85
DICPCG:  Solving for p, Initial residual = 5.5888566e-05, Final residual = 5.4588676e-07, No Iterations 38
DICPCG:  Solving for p, Initial residual = 5.4585924e-07, Final residual = 9.8771146e-09, No Iterations 67
time step continuity errors : sum local = 6.4864645e-11, global = -4.9585986e-12, cumulative = 1.0435307e-12
DILUPBiCGStab:  Solving for nuTilda, Initial residual = 0.0053602813, Final residual = 4.7209392e-11, No Iterations 3
ExecutionTime = 1.2 s  ClockTime = 1 s

volFieldValue minmaxdomain_scalar write:

volFieldValue minmaxdomain_vector write:

volFieldValue mindomain_scalar write:
    min(region0) of nuTilda = 5.772527e-08
    min(region0) of nut = 9.1921068e-18

volFieldValue mindomain_vector write:
    min(region0) of U = (0.012923297 -1.2702221e-06 -9.6917108e-17)

volFieldValue maxdomain_scalar write:
    max(region0) of nuTilda = 2.1020272e-06
    max(region0) of nut = 1.6162225e-11

volFieldValue maxdomain_vector write:
    max(region0) of U = (1.0052381 0.019454193 4.8830503e-17)

Time = 27

DILUPBiCGStab:  Solving for Ux, Initial residual = 0.0034648725, Final residual = 1.3830028e-09, No Iterations 3
DILUPBiCGStab:  Solving for Uy, Initial residual = 0.0054063837, Final residual = 8.7021867e-09, No Iterations 6
DICPCG:  Solving for p, Initial residual = 0.006174341, Final residual = 5.480238e-05, No Iterations 85
DICPCG:  Solving for p, Initial residual = 5.1090307e-05, Final residual = 4.8454094e-07, No Iterations 38
DICPCG:  Solving for p, Initial residual = 4.8451844e-07, Final residual = 9.8221694e-09, No Iterations 66
time step continuity errors : sum local = 6.9596055e-11, global = -4.6729336e-12, cumulative = -3.6294029e-12
DILUPBiCGStab:  Solving for nuTilda, Initial residual = 0.0051393114, Final residual = 4.9946667e-11, No Iterations 3
ExecutionTime = 1.25 s  ClockTime = 1 s

volFieldValue minmaxdomain_scalar write:

volFieldValue minmaxdomain_vector write:

volFieldValue mindomain_scalar write:
    min(region0) of nuTilda = 5.5966696e-08
    min(region0) of nut = 8.1221282e-18

volFieldValue mindomain_vector write:
    min(region0) of U = (0.012352129 -1.0171455e-06 -1.0065786e-16)

volFieldValue maxdomain_scalar write:
    max(region0) of nuTilda = 2.125565e-06
    max(region0) of nut = 1.6898388e-11

volFieldValue maxdomain_vector write:
    max(region0) of U = (1.0053883 0.020446082 5.06553e-17)

Time = 28

DILUPBiCGStab:  Solving for Ux, Initial residual = 0.0033022978, Final residual = 1.3999303e-09, No Iterations 3
DILUPBiCGStab:  Solving for Uy, Initial residual = 0.0052052373, Final residual = 5.5894708e-10, No Iterations 7
DICPCG:  Solving for p, Initial residual = 0.0058153019, Final residual = 4.7376073e-05, No Iterations 85
DICPCG:  Solving for p, Initial residual = 4.4265477e-05, Final residual = 4.417497e-07, No Iterations 37
DICPCG:  Solving for p, Initial residual = 4.4173117e-07, Final residual = 9.3155424e-09, No Iterations 70
time step continuity errors : sum local = 7.1032451e-11, global = -5.5852408e-12, cumulative = -9.2146437e-12
DILUPBiCGStab:  Solving for nuTilda, Initial residual = 0.0049344485, Final residual = 5.2980865e-11, No Iterations 3
ExecutionTime = 1.29 s  ClockTime = 1 s

volFieldValue minmaxdomain_scalar write:

volFieldValue minmaxdomain_vector write:

volFieldValue mindomain_scalar write:
    min(region0) of nuTilda = 5.4305034e-08
    min(region0) of nut = 7.1996526e-18

volFieldValue mindomain_vector write:
    min(region0) of U = (0.011816679 -8.001412e-07 -1.0436999e-16)

volFieldValue maxdomain_scalar write:
    max(region0) of nuTilda = 2.1520918e-06
    max(region0) of nut = 1.7757865e-11

volFieldValue maxdomain_vector write:
    max(region0) of U = (1.00553 0.021426987 5.2486927e-17)

Time = 29

DILUPBiCGStab:  Solving for Ux, Initial residual = 0.0031507767, Final residual = 1.4113517e-09, No Iterations 3
DILUPBiCGStab:  Solving for Uy, Initial residual = 0.0050127482, Final residual = 8.6855096e-09, No Iterations 6
DICPCG:  Solving for p, Initial residual = 0.0054808126, Final residual = 5.3957279e-05, No Iterations 84
DICPCG:  Solving for p, Initial residual = 5.0524488e-05, Final residual = 4.6514137e-07, No Iterations 39
DICPCG:  Solving for p, Initial residual = 4.651175e-07, Final residual = 7.8690217e-09, No Iterations 64
time step continuity errors : sum local = 6.4410193e-11, global = 4.5845676e-12, cumulative = -4.6300761e-12
DILUPBiCGStab:  Solving for nuTilda, Initial residual = 0.0047439939, Final residual = 5.6251774e-11, No Iterations 3
ExecutionTime = 1.33 s  ClockTime = 1 s

volFieldValue minmaxdomain_scalar write:

volFieldValue minmaxdomain_vector write:

volFieldValue mindomain_scalar write:
    min(region0) of nuTilda = 5.2732016e-08
    min(region0) of nut = 6.4010124e-18

volFieldValue mindomain_vector write:
    min(region0) of U = (0.011313865 -6.1972309e-07 -1.0802115e-16)

volFieldValue maxdomain_scalar write:
    max(region0) of nuTilda = 2.1807486e-06
    max(region0) of nut = 1.8722759e-11

volFieldValue maxdomain_vector write:
    max(region0) of U = (1.0056621 0.022395567 5.4322086e-17)

Time = 30

DILUPBiCGStab:  Solving for Ux, Initial residual = 0.0030093151, Final residual = 1.4182113e-09, No Iterations 3
DILUPBiCGStab:  Solving for Uy, Initial residual = 0.0048275401, Final residual = 5.3929399e-09, No Iterations 6
DICPCG:  Solving for p, Initial residual = 0.0051685542, Final residual = 4.7285834e-05, No Iterations 84
DICPCG:  Solving for p, Initial residual = 4.4368604e-05, Final residual = 3.9314367e-07, No Iterations 39
DICPCG:  Solving for p, Initial residual = 3.9312612e-07, Final residual = 8.8023552e-09, No Iterations 63
time step continuity errors : sum local = 7.7159371e-11, global = 4.8615919e-12, cumulative = 2.3151581e-13
DILUPBiCGStab:  Solving for nuTilda, Initial residual = 0.004565237, Final residual = 5.9880906e-11, No Iterations 3
ExecutionTime = 1.38 s  ClockTime = 1 s

volFieldValue minmaxdomain_scalar write:

volFieldValue minmaxdomain_vector write:

volFieldValue mindomain_scalar write:
    min(region0) of nuTilda = 5.1240349e-08
    min(region0) of nut = 5.7068897e-18

volFieldValue mindomain_vector write:
    min(region0) of U = (0.010840964 -4.7289577e-07 -1.1170915e-16)

volFieldValue maxdomain_scalar write:
    max(region0) of nuTilda = 2.2122749e-06
    max(region0) of nut = 1.9829131e-11

volFieldValue maxdomain_vector write:
    max(region0) of U = (1.0057817 0.023345081 5.6166079e-17)

Time = 31

DILUPBiCGStab:  Solving for Ux, Initial residual = 0.002876903, Final residual = 1.4168577e-09, No Iterations 3
DILUPBiCGStab:  Solving for Uy, Initial residual = 0.0046508005, Final residual = 4.4383409e-09, No Iterations 6
DICPCG:  Solving for p, Initial residual = 0.004874053, Final residual = 4.645548e-05, No Iterations 83
DICPCG:  Solving for p, Initial residual = 4.3676823e-05, Final residual = 4.0237378e-07, No Iterations 40
DICPCG:  Solving for p, Initial residual = 4.0235451e-07, Final residual = 9.7589973e-09, No Iterations 66
time step continuity errors : sum local = 9.140227e-11, global = 3.1986269e-13, cumulative = 5.513785e-13
DILUPBiCGStab:  Solving for nuTilda, Initial residual = 0.0043974979, Final residual = 6.3890151e-11, No Iterations 3
ExecutionTime = 1.42 s  ClockTime = 1 s

volFieldValue minmaxdomain_scalar write:

volFieldValue minmaxdomain_vector write:

volFieldValue mindomain_scalar write:
    min(region0) of nuTilda = 4.9823573e-08
    min(region0) of nut = 5.1014148e-18

volFieldValue mindomain_vector write:
    min(region0) of U = (0.010393944 -3.5492934e-07 -1.1528553e-16)

volFieldValue maxdomain_scalar write:
    max(region0) of nuTilda = 2.2461514e-06
    max(region0) of nut = 2.1071878e-11

volFieldValue maxdomain_vector write:
    max(region0) of U = (1.0058857 0.024278831 5.7965002e-17)

Time = 32

DILUPBiCGStab:  Solving for Ux, Initial residual = 0.0027527763, Final residual = 1.4075321e-09, No Iterations 3
DILUPBiCGStab:  Solving for Uy, Initial residual = 0.0044814346, Final residual = 3.9602011e-09, No Iterations 6
DICPCG:  Solving for p, Initial residual = 0.0045979268, Final residual = 4.5163693e-05, No Iterations 80
DICPCG:  Solving for p, Initial residual = 4.2545256e-05, Final residual = 4.216414e-07, No Iterations 43
DICPCG:  Solving for p, Initial residual = 4.2161804e-07, Final residual = 7.3726949e-09, No Iterations 64
time step continuity errors : sum local = 7.361724e-11, global = 4.691675e-12, cumulative = 5.2430535e-12
DILUPBiCGStab:  Solving for nuTilda, Initial residual = 0.0042398034, Final residual = 6.8477271e-11, No Iterations 3
ExecutionTime = 1.46 s  ClockTime = 1 s

volFieldValue minmaxdomain_scalar write:

volFieldValue minmaxdomain_vector write:

volFieldValue mindomain_scalar write:
    min(region0) of nuTilda = 4.847594e-08
    min(region0) of nut = 4.5714729e-18

volFieldValue mindomain_vector write:
    min(region0) of U = (0.0099716936 -2.6130714e-07 -1.1877812e-16)

volFieldValue maxdomain_scalar write:
    max(region0) of nuTilda = 2.2838925e-06
    max(region0) of nut = 2.2524209e-11

volFieldValue maxdomain_vector write:
    max(region0) of U = (1.0059791 0.025197613 5.9722008e-17)

Time = 33

DILUPBiCGStab:  Solving for Ux, Initial residual = 0.0026361666, Final residual = 1.3765253e-09, No Iterations 3
DILUPBiCGStab:  Solving for Uy, Initial residual = 0.0043194426, Final residual = 3.6171294e-09, No Iterations 6
DICPCG:  Solving for p, Initial residual = 0.0043347805, Final residual = 4.1264259e-05, No Iterations 79
DICPCG:  Solving for p, Initial residual = 3.8943519e-05, Final residual = 3.6587642e-07, No Iterations 41
DICPCG:  Solving for p, Initial residual = 3.6585887e-07, Final residual = 9.4772813e-09, No Iterations 61
time step continuity errors : sum local = 1.0067637e-10, global = 1.5064332e-12, cumulative = 6.7494866e-12
DILUPBiCGStab:  Solving for nuTilda, Initial residual = 0.0040919805, Final residual = 7.3187709e-11, No Iterations 3
ExecutionTime = 1.5 s  ClockTime = 1 s

volFieldValue minmaxdomain_scalar write:

volFieldValue minmaxdomain_vector write:

volFieldValue mindomain_scalar write:
    min(region0) of nuTilda = 4.7192319e-08
    min(region0) of nut = 4.1061654e-18

volFieldValue mindomain_vector write:
    min(region0) of U = (0.0095726722 -1.878354e-07 -1.2218029e-16)

volFieldValue maxdomain_scalar write:
    max(region0) of nuTilda = 2.3254643e-06
    max(region0) of nut = 2.4209475e-11

volFieldValue maxdomain_vector write:
    max(region0) of U = (1.0060618 0.026099025 6.1465343e-17)

Time = 34

DILUPBiCGStab:  Solving for Ux, Initial residual = 0.0025264535, Final residual = 1.3487334e-09, No Iterations 3
DILUPBiCGStab:  Solving for Uy, Initial residual = 0.0041635114, Final residual = 3.3327599e-09, No Iterations 6
DICPCG:  Solving for p, Initial residual = 0.0040843982, Final residual = 3.5079666e-05, No Iterations 79
DICPCG:  Solving for p, Initial residual = 3.3165319e-05, Final residual = 3.1052212e-07, No Iterations 40
DICPCG:  Solving for p, Initial residual = 3.1051063e-07, Final residual = 9.765557e-09, No Iterations 63
time step continuity errors : sum local = 1.1014299e-10, global = -4.5969204e-12, cumulative = 2.1525663e-12
DILUPBiCGStab:  Solving for nuTilda, Initial residual = 0.0039534563, Final residual = 7.8333487e-11, No Iterations 3
ExecutionTime = 1.55 s  ClockTime = 1 s

volFieldValue minmaxdomain_scalar write:

volFieldValue minmaxdomain_vector write:

volFieldValue mindomain_scalar write:
    min(region0) of nuTilda = 4.5966446e-08
    min(region0) of nut = 3.6958546e-18

volFieldValue mindomain_vector write:
    min(region0) of U = (0.0091951565 -1.3070604e-07 -1.2546753e-16)

volFieldValue maxdomain_scalar write:
    max(region0) of nuTilda = 2.3707354e-06
    max(region0) of nut = 2.6150424e-11

volFieldValue maxdomain_vector write:
    max(region0) of U = (1.0061314 0.02698255 6.3206517e-17)

Time = 35

DILUPBiCGStab:  Solving for Ux, Initial residual = 0.0024230625, Final residual = 1.3200271e-09, No Iterations 3
DILUPBiCGStab:  Solving for Uy, Initial residual = 0.0040140955, Final residual = 9.6837615e-09, No Iterations 5
DICPCG:  Solving for p, Initial residual = 0.0038562275, Final residual = 3.7608948e-05, No Iterations 78
DICPCG:  Solving for p, Initial residual = 3.5618462e-05, Final residual = 3.2816327e-07, No Iterations 39
DICPCG:  Solving for p, Initial residual = 3.2815358e-07, Final residual = 9.606506e-09, No Iterations 64
time step continuity errors : sum local = 1.1481096e-10, global = -7.0388336e-12, cumulative = -4.8862674e-12
DILUPBiCGStab:  Solving for nuTilda, Initial residual = 0.003822831, Final residual = 8.3976273e-11, No Iterations 3
ExecutionTime = 1.59 s  ClockTime = 1 s

volFieldValue minmaxdomain_scalar write:

volFieldValue minmaxdomain_vector write:

volFieldValue mindomain_scalar write:
    min(region0) of nuTilda = 4.4795576e-08
    min(region0) of nut = 3.3334326e-18

volFieldValue mindomain_vector write:
    min(region0) of U = (0.0088374862 -8.6713728e-08 -1.2871561e-16)

volFieldValue maxdomain_scalar write:
    max(region0) of nuTilda = 2.4283278e-06
    max(region0) of nut = 2.8785598e-11

volFieldValue maxdomain_vector write:
    max(region0) of U = (1.006199 0.027847023 6.4949654e-17)

Time = 36

DILUPBiCGStab:  Solving for Ux, Initial residual = 0.0023254837, Final residual = 1.3016373e-09, No Iterations 3
DILUPBiCGStab:  Solving for Uy, Initial residual = 0.0038717815, Final residual = 9.0443372e-09, No Iterations 5
DICPCG:  Solving for p, Initial residual = 0.0036436197, Final residual = 3.3648125e-05, No Iterations 78
DICPCG:  Solving for p, Initial residual = 3.192031e-05, Final residual = 2.9886682e-07, No Iterations 30
DICPCG:  Solving for p, Initial residual = 2.9886074e-07, Final residual = 8.5317679e-09, No Iterations 66
time step continuity errors : sum local = 1.0784493e-10, global = 1.4845204e-12, cumulative = -3.401747e-12
DILUPBiCGStab:  Solving for nuTilda, Initial residual = 0.0036991767, Final residual = 8.9818691e-11, No Iterations 3
ExecutionTime = 1.63 s  ClockTime = 1 s

volFieldValue minmaxdomain_scalar write:

volFieldValue minmaxdomain_vector write:

volFieldValue mindomain_scalar write:
    min(region0) of nuTilda = 4.3675962e-08
    min(region0) of nut = 3.0124586e-18

volFieldValue mindomain_vector write:
    min(region0) of U = (0.0084978438 -5.410837e-08 -1.3189869e-16)

volFieldValue maxdomain_scalar write:
    max(region0) of nuTilda = 2.5070503e-06
    max(region0) of nut = 3.270376e-11

volFieldValue maxdomain_vector write:
    max(region0) of U = (1.0062622 0.02869269 6.6680577e-17)

Time = 37

DILUPBiCGStab:  Solving for Ux, Initial residual = 0.0022332633, Final residual = 1.2870005e-09, No Iterations 3
DILUPBiCGStab:  Solving for Uy, Initial residual = 0.003736794, Final residual = 8.4518914e-09, No Iterations 5
DICPCG:  Solving for p, Initial residual = 0.0034458653, Final residual = 3.0060486e-05, No Iterations 78
DICPCG:  Solving for p, Initial residual = 2.8562575e-05, Final residual = 2.6506048e-07, No Iterations 29
DICPCG:  Solving for p, Initial residual = 2.6505773e-07, Final residual = 8.8840561e-09, No Iterations 64
time step continuity errors : sum local = 1.1855832e-10, global = -3.3603544e-12, cumulative = -6.7621014e-12
DILUPBiCGStab:  Solving for nuTilda, Initial residual = 0.0035822996, Final residual = 9.6122545e-11, No Iterations 3
ExecutionTime = 1.67 s  ClockTime = 2 s

volFieldValue minmaxdomain_scalar write:

volFieldValue minmaxdomain_vector write:

volFieldValue mindomain_scalar write:
    min(region0) of nuTilda = 4.26042e-08
    min(region0) of nut = 2.7274755e-18

volFieldValue mindomain_vector write:
    min(region0) of U = (0.008175344 -3.1230584e-08 -1.3505212e-16)

volFieldValue maxdomain_scalar write:
    max(region0) of nuTilda = 2.5936098e-06
    max(region0) of nut = 3.7459628e-11

volFieldValue maxdomain_vector write:
    max(region0) of U = (1.0063189 0.029521123 6.8393262e-17)

Time = 38

DILUPBiCGStab:  Solving for Ux, Initial residual = 0.0021459869, Final residual = 1.2746573e-09, No Iterations 3
DILUPBiCGStab:  Solving for Uy, Initial residual = 0.0036080285, Final residual = 7.9099406e-09, No Iterations 5
DICPCG:  Solving for p, Initial residual = 0.0032628042, Final residual = 2.7293865e-05, No Iterations 78
DICPCG:  Solving for p, Initial residual = 2.5973732e-05, Final residual = 2.263365e-07, No Iterations 29
DICPCG:  Solving for p, Initial residual = 2.26336e-07, Final residual = 9.2361203e-09, No Iterations 63
time step continuity errors : sum local = 1.2990352e-10, global = -4.1109093e-12, cumulative = -1.0873011e-11
DILUPBiCGStab:  Solving for nuTilda, Initial residual = 0.0034718994, Final residual = 1.0265841e-10, No Iterations 3
ExecutionTime = 1.71 s  ClockTime = 2 s

volFieldValue minmaxdomain_scalar write:

volFieldValue minmaxdomain_vector write:

volFieldValue mindomain_scalar write:
    min(region0) of nuTilda = 4.1577202e-08
    min(region0) of nut = 2.4738435e-18

volFieldValue mindomain_vector write:
    min(region0) of U = (0.0078688242 -1.5053357e-08 -1.3813878e-16)

volFieldValue maxdomain_scalar write:
    max(region0) of nuTilda = 2.6903978e-06
    max(region0) of nut = 4.337207e-11

volFieldValue maxdomain_vector write:
    max(region0) of U = (1.0063672 0.030338039 7.0079486e-17)

Time = 39

DILUPBiCGStab:  Solving for Ux, Initial residual = 0.0020632914, Final residual = 1.2591667e-09, No Iterations 3
DILUPBiCGStab:  Solving for Uy, Initial residual = 0.003485132, Final residual = 7.4068885e-09, No Iterations 5
DICPCG:  Solving for p, Initial residual = 0.0030922636, Final residual = 2.5010211e-05, No Iterations 78
DICPCG:  Solving for p, Initial residual = 2.3835621e-05, Final residual = 2.3326485e-07, No Iterations 25
DICPCG:  Solving for p, Initial residual = 2.3326611e-07, Final residual = 8.9575606e-09, No Iterations 67
time step continuity errors : sum local = 1.3256173e-10, global = 1.3170991e-12, cumulative = -9.5559116e-12
DILUPBiCGStab:  Solving for nuTilda, Initial residual = 0.0033677214, Final residual = 1.0884147e-10, No Iterations 3
ExecutionTime = 1.75 s  ClockTime = 2 s

volFieldValue minmaxdomain_scalar write:

volFieldValue minmaxdomain_vector write:

volFieldValue mindomain_scalar write:
    min(region0) of nuTilda = 4.0592152e-08
    min(region0) of nut = 2.2476023e-18

volFieldValue mindomain_vector write:
    min(region0) of U = (0.0075772256 -5.2823139e-09 -1.4108818e-16)

volFieldValue maxdomain_scalar write:
    max(region0) of nuTilda = 2.7961884e-06
    max(region0) of nut = 5.0606819e-11

volFieldValue maxdomain_vector write:
    max(region0) of U = (1.0064058 0.031137102 7.1685167e-17)

Time = 40

DILUPBiCGStab:  Solving for Ux, Initial residual = 0.0019848429, Final residual = 1.2467633e-09, No Iterations 3
DILUPBiCGStab:  Solving for Uy, Initial residual = 0.0033672321, Final residual = 6.9518235e-09, No Iterations 5
DICPCG:  Solving for p, Initial residual = 0.0029347153, Final residual = 2.3603615e-05, No Iterations 78
DICPCG:  Solving for p, Initial residual = 2.2527583e-05, Final residual = 1.9167096e-07, No Iterations 29
DICPCG:  Solving for p, Initial residual = 1.9167302e-07, Final residual = 9.9277236e-09, No Iterations 62
time step continuity errors : sum local = 1.5434003e-10, global = 4.4316094e-13, cumulative = -9.1127507e-12
DILUPBiCGStab:  Solving for nuTilda, Initial residual = 0.0032697651, Final residual = 1.1514117e-10, No Iterations 3
ExecutionTime = 1.79 s  ClockTime = 2 s

volFieldValue minmaxdomain_scalar write:

volFieldValue minmaxdomain_vector write:

volFieldValue mindomain_scalar write:
    min(region0) of nuTilda = 3.9646479e-08
    min(region0) of nut = 2.0453597e-18

volFieldValue mindomain_vector write:
    min(region0) of U = (0.0072995814 -7.1822692e-10 -1.4393478e-16)

volFieldValue maxdomain_scalar write:
    max(region0) of nuTilda = 2.9130671e-06
    max(region0) of nut = 5.9613451e-11

volFieldValue maxdomain_vector write:
    max(region0) of U = (1.0064397 0.031917968 7.3237443e-17)

Time = 41

DILUPBiCGStab:  Solving for Ux, Initial residual = 0.0019103441, Final residual = 1.2315948e-09, No Iterations 3
DILUPBiCGStab:  Solving for Uy, Initial residual = 0.0032543314, Final residual = 6.5350217e-09, No Iterations 5
DICPCG:  Solving for p, Initial residual = 0.0027887396, Final residual = 2.2532227e-05, No Iterations 78
DICPCG:  Solving for p, Initial residual = 2.1534614e-05, Final residual = 1.8917897e-07, No Iterations 29
DICPCG:  Solving for p, Initial residual = 1.8918218e-07, Final residual = 9.630854e-09, No Iterations 62
time step continuity errors : sum local = 1.5704831e-10, global = 3.9641962e-12, cumulative = -5.1485544e-12
DILUPBiCGStab:  Solving for nuTilda, Initial residual = 0.0031772745, Final residual = 1.2119634e-10, No Iterations 3
ExecutionTime = 1.83 s  ClockTime = 2 s

volFieldValue minmaxdomain_scalar write:

volFieldValue minmaxdomain_vector write:

volFieldValue mindomain_scalar write:
    min(region0) of nuTilda = 3.8737832e-08
    min(region0) of nut = 1.8641996e-18

volFieldValue mindomain_vector write:
    min(region0) of U = (0.0070350067 -1.4015791e-10 -1.4657887e-16)

volFieldValue maxdomain_scalar write:
    max(region0) of nuTilda = 3.0430834e-06
    max(region0) of nut = 7.0989886e-11

volFieldValue maxdomain_vector write:
    max(region0) of U = (1.0064321 0.032680388 7.4698386e-17)

Time = 42

DILUPBiCGStab:  Solving for Ux, Initial residual = 0.001839514, Final residual = 1.2133876e-09, No Iterations 3
DILUPBiCGStab:  Solving for Uy, Initial residual = 0.0031467622, Final residual = 6.1486944e-09, No Iterations 5
DICPCG:  Solving for p, Initial residual = 0.0026557818, Final residual = 2.1848502e-05, No Iterations 78
DICPCG:  Solving for p, Initial residual = 2.0909286e-05, Final residual = 2.0016435e-07, No Iterations 29
DICPCG:  Solving for p, Initial residual = 2.0016872e-07, Final residual = 9.2335439e-09, No Iterations 63
time step continuity errors : sum local = 1.5770041e-10, global = 5.6140804e-12, cumulative = 4.6552599e-13
DILUPBiCGStab:  Solving for nuTilda, Initial residual = 0.0030898789, Final residual = 1.2726933e-10, No Iterations 3
ExecutionTime = 1.87 s  ClockTime = 2 s

volFieldValue minmaxdomain_scalar write:

volFieldValue minmaxdomain_vector write:

volFieldValue mindomain_scalar write:
    min(region0) of nuTilda = 3.786405e-08
    min(region0) of nut = 1.7016077e-18

volFieldValue mindomain_vector write:
    min(region0) of U = (0.0067826899 1.1151968e-15 -1.4920172e-16)

volFieldValue maxdomain_scalar write:
    max(region0) of nuTilda = 3.1851041e-06
    max(region0) of nut = 8.5198922e-11

volFieldValue maxdomain_vector write:
    max(region0) of U = (1.0064528 0.033424153 7.6141186e-17)

Time = 43

DILUPBiCGStab:  Solving for Ux, Initial residual = 0.0017721098, Final residual = 1.1931703e-09, No Iterations 3
DILUPBiCGStab:  Solving for Uy, Initial residual = 0.0030443872, Final residual = 5.8054332e-09, No Iterations 5
DICPCG:  Solving for p, Initial residual = 0.0025325605, Final residual = 2.1152845e-05, No Iterations 78
DICPCG:  Solving for p, Initial residual = 2.0269584e-05, Final residual = 1.6916247e-07, No Iterations 39
DICPCG:  Solving for p, Initial residual = 1.691669e-07, Final residual = 9.6067506e-09, No Iterations 59
time step continuity errors : sum local = 1.7160185e-10, global = 3.814426e-12, cumulative = 4.279952e-12
DILUPBiCGStab:  Solving for nuTilda, Initial residual = 0.003007131, Final residual = 1.3356e-10, No Iterations 3
ExecutionTime = 1.91 s  ClockTime = 2 s

volFieldValue minmaxdomain_scalar write:

volFieldValue minmaxdomain_vector write:

volFieldValue mindomain_scalar write:
    min(region0) of nuTilda = 3.7023149e-08
    min(region0) of nut = 1.555409e-18

volFieldValue mindomain_vector write:
    min(region0) of U = (0.0065418849 1.9275496e-15 -1.5175568e-16)

volFieldValue maxdomain_scalar write:
    max(region0) of nuTilda = 3.3405272e-06
    max(region0) of nut = 1.0308556e-10

volFieldValue maxdomain_vector write:
    max(region0) of U = (1.0065101 0.034150248 7.7550985e-17)

Time = 44

DILUPBiCGStab:  Solving for Ux, Initial residual = 0.0017079027, Final residual = 1.1730386e-09, No Iterations 3
DILUPBiCGStab:  Solving for Uy, Initial residual = 0.0029458191, Final residual = 5.5140662e-09, No Iterations 5
DICPCG:  Solving for p, Initial residual = 0.0024181107, Final residual = 2.1158655e-05, No Iterations 78
DICPCG:  Solving for p, Initial residual = 2.0300337e-05, Final residual = 1.744137e-07, No Iterations 39
DICPCG:  Solving for p, Initial residual = 1.7441873e-07, Final residual = 8.7764424e-09, No Iterations 61
time step continuity errors : sum local = 1.6374015e-10, global = 4.3280156e-13, cumulative = 4.7127536e-12
DILUPBiCGStab:  Solving for nuTilda, Initial residual = 0.0029291545, Final residual = 1.3986254e-10, No Iterations 3
ExecutionTime = 1.95 s  ClockTime = 2 s

volFieldValue minmaxdomain_scalar write:

volFieldValue minmaxdomain_vector write:

volFieldValue mindomain_scalar write:
    min(region0) of nuTilda = 3.6213301e-08
    min(region0) of nut = 1.4237169e-18

volFieldValue mindomain_vector write:
    min(region0) of U = (0.0063119049 2.8345972e-15 -1.5428823e-16)

volFieldValue maxdomain_scalar write:
    max(region0) of nuTilda = 3.5150996e-06
    max(region0) of nut = 1.2638226e-10

volFieldValue maxdomain_vector write:
    max(region0) of U = (1.0065717 0.034858021 7.8941988e-17)

Time = 45

DILUPBiCGStab:  Solving for Ux, Initial residual = 0.0016466919, Final residual = 1.1521229e-09, No Iterations 3
DILUPBiCGStab:  Solving for Uy, Initial residual = 0.0028512977, Final residual = 5.2882115e-09, No Iterations 5
DICPCG:  Solving for p, Initial residual = 0.002309372, Final residual = 2.1137189e-05, No Iterations 78
DICPCG:  Solving for p, Initial residual = 2.0304145e-05, Final residual = 1.8390829e-07, No Iterations 39
DICPCG:  Solving for p, Initial residual = 1.8391403e-07, Final residual = 7.5748982e-09, No Iterations 61
time step continuity errors : sum local = 1.4741208e-10, global = 2.9624619e-12, cumulative = 7.6752154e-12
DILUPBiCGStab:  Solving for nuTilda, Initial residual = 0.0028557953, Final residual = 1.4759835e-10, No Iterations 3
ExecutionTime = 1.99 s  ClockTime = 2 s

volFieldValue minmaxdomain_scalar write:

volFieldValue minmaxdomain_vector write:

volFieldValue mindomain_scalar write:
    min(region0) of nuTilda = 3.5432817e-08
    min(region0) of nut = 1.30489e-18

volFieldValue mindomain_vector write:
    min(region0) of U = (0.006092116 3.8888024e-15 -1.567885e-16)

volFieldValue maxdomain_scalar write:
    max(region0) of nuTilda = 3.7059127e-06
    max(region0) of nut = 1.5613979e-10

volFieldValue maxdomain_vector write:
    max(region0) of U = (1.0066283 0.035547407 8.0306994e-17)

Time = 46

DILUPBiCGStab:  Solving for Ux, Initial residual = 0.0015882884, Final residual = 1.1303568e-09, No Iterations 3
DILUPBiCGStab:  Solving for Uy, Initial residual = 0.0027603731, Final residual = 5.113446e-09, No Iterations 5
DICPCG:  Solving for p, Initial residual = 0.0022036342, Final residual = 2.1514128e-05, No Iterations 78
DICPCG:  Solving for p, Initial residual = 2.0690108e-05, Final residual = 2.0202443e-07, No Iterations 39
DICPCG:  Solving for p, Initial residual = 2.02031e-07, Final residual = 8.5700574e-09, No Iterations 61
time step continuity errors : sum local = 1.7374586e-10, global = 1.1751359e-11, cumulative = 1.9426575e-11
DILUPBiCGStab:  Solving for nuTilda, Initial residual = 0.002786658, Final residual = 1.5599655e-10, No Iterations 3
ExecutionTime = 2.03 s  ClockTime = 2 s

volFieldValue minmaxdomain_scalar write:

volFieldValue minmaxdomain_vector write:

volFieldValue mindomain_scalar write:
    min(region0) of nuTilda = 3.4680136e-08
    min(region0) of nut = 1.1974967e-18

volFieldValue mindomain_vector write:
    min(region0) of U = (0.0058819322 5.1178561e-15 -1.5922033e-16)

volFieldValue maxdomain_scalar write:
    max(region0) of nuTilda = 3.9144113e-06
    max(region0) of nut = 1.9435488e-10

volFieldValue maxdomain_vector write:
    max(region0) of U = (1.0066729 0.036218633 8.1667455e-17)

Time = 47

DILUPBiCGStab:  Solving for Ux, Initial residual = 0.0015325188, Final residual = 1.1082532e-09, No Iterations 3
DILUPBiCGStab:  Solving for Uy, Initial residual = 0.0026726803, Final residual = 4.8888255e-09, No Iterations 5
DICPCG:  Solving for p, Initial residual = 0.0021038875, Final residual = 1.9693561e-05, No Iterations 79
DICPCG:  Solving for p, Initial residual = 1.8960666e-05, Final residual = 1.7984559e-07, No Iterations 41
DICPCG:  Solving for p, Initial residual = 1.7985119e-07, Final residual = 9.1788847e-09, No Iterations 61
time step continuity errors : sum local = 1.9362625e-10, global = 1.012681e-11, cumulative = 2.9553385e-11
DILUPBiCGStab:  Solving for nuTilda, Initial residual = 0.0027218301, Final residual = 1.6489017e-10, No Iterations 3
ExecutionTime = 2.07 s  ClockTime = 2 s

volFieldValue minmaxdomain_scalar write:

volFieldValue minmaxdomain_vector write:

volFieldValue mindomain_scalar write:
    min(region0) of nuTilda = 3.395381e-08
    min(region0) of nut = 1.1002851e-18

volFieldValue mindomain_vector write:
    min(region0) of U = (0.0056808114 6.5529741e-15 -1.6160585e-16)

volFieldValue maxdomain_scalar write:
    max(region0) of nuTilda = 4.1441524e-06
    max(region0) of nut = 2.4415659e-10

volFieldValue maxdomain_vector write:
    max(region0) of U = (1.0067126 0.036871772 8.3008376e-17)

Time = 48

DILUPBiCGStab:  Solving for Ux, Initial residual = 0.0014792219, Final residual = 1.0853053e-09, No Iterations 3
DILUPBiCGStab:  Solving for Uy, Initial residual = 0.0025889278, Final residual = 4.5634319e-09, No Iterations 5
DICPCG:  Solving for p, Initial residual = 0.0020096228, Final residual = 1.9162251e-05, No Iterations 82
DICPCG:  Solving for p, Initial residual = 1.8469449e-05, Final residual = 1.8376403e-07, No Iterations 39
DICPCG:  Solving for p, Initial residual = 1.8376718e-07, Final residual = 9.155828e-09, No Iterations 53
time step continuity errors : sum local = 2.0072671e-10, global = -7.5909786e-12, cumulative = 2.1962407e-11
DILUPBiCGStab:  Solving for nuTilda, Initial residual = 0.0026612895, Final residual = 1.7428149e-10, No Iterations 3
ExecutionTime = 2.11 s  ClockTime = 2 s

volFieldValue minmaxdomain_scalar write:

volFieldValue minmaxdomain_vector write:

volFieldValue mindomain_scalar write:
    min(region0) of nuTilda = 3.3252498e-08
    min(region0) of nut = 1.0121579e-18

volFieldValue mindomain_vector write:
    min(region0) of U = (0.0054882505 8.0575073e-15 -1.6391311e-16)

volFieldValue maxdomain_scalar write:
    max(region0) of nuTilda = 4.4009142e-06
    max(region0) of nut = 3.1052182e-10

volFieldValue maxdomain_vector write:
    max(region0) of U = (1.0067543 0.037507333 8.4305187e-17)

Time = 49

DILUPBiCGStab:  Solving for Ux, Initial residual = 0.0014282511, Final residual = 1.0608356e-09, No Iterations 3
DILUPBiCGStab:  Solving for Uy, Initial residual = 0.0025087884, Final residual = 4.1308589e-09, No Iterations 5
DICPCG:  Solving for p, Initial residual = 0.0019216407, Final residual = 1.676966e-05, No Iterations 83
DICPCG:  Solving for p, Initial residual = 1.6180501e-05, Final residual = 1.5955997e-07, No Iterations 38
DICPCG:  Solving for p, Initial residual = 1.5956171e-07, Final residual = 8.4071822e-09, No Iterations 58
time step continuity errors : sum local = 1.9133587e-10, global = -1.1300087e-12, cumulative = 2.0832398e-11
DILUPBiCGStab:  Solving for nuTilda, Initial residual = 0.0025928871, Final residual = 1.8359766e-10, No Iterations 3
ExecutionTime = 2.15 s  ClockTime = 2 s

volFieldValue minmaxdomain_scalar write:

volFieldValue minmaxdomain_vector write:

volFieldValue mindomain_scalar write:
    min(region0) of nuTilda = 3.2574951e-08
    min(region0) of nut = 9.32151e-19

volFieldValue mindomain_vector write:
    min(region0) of U = (0.0053037825 9.6282027e-15 -1.6608068e-16)

volFieldValue maxdomain_scalar write:
    max(region0) of nuTilda = 4.6816234e-06
    max(region0) of nut = 3.9764927e-10

volFieldValue maxdomain_vector write:
    max(region0) of U = (1.0067945 0.038125838 8.5532199e-17)

Time = 50

DILUPBiCGStab:  Solving for Ux, Initial residual = 0.0013794747, Final residual = 1.0368144e-09, No Iterations 3
DILUPBiCGStab:  Solving for Uy, Initial residual = 0.0024318808, Final residual = 3.4136585e-09, No Iterations 5
DICPCG:  Solving for p, Initial residual = 0.0018396612, Final residual = 1.6865137e-05, No Iterations 83
DICPCG:  Solving for p, Initial residual = 1.6289224e-05, Final residual = 1.5987902e-07, No Iterations 38
DICPCG:  Solving for p, Initial residual = 1.5988059e-07, Final residual = 8.5749381e-09, No Iterations 58
time step continuity errors : sum local = 2.0236716e-10, global = -1.7322218e-12, cumulative = 1.9100176e-11
DILUPBiCGStab:  Solving for nuTilda, Initial residual = 0.0025221981, Final residual = 1.92977e-10, No Iterations 3
ExecutionTime = 2.19 s  ClockTime = 2 s

volFieldValue minmaxdomain_scalar write:

volFieldValue minmaxdomain_vector write:

volFieldValue mindomain_scalar write:
    min(region0) of nuTilda = 3.1920008e-08
    min(region0) of nut = 8.5941539e-19

volFieldValue mindomain_vector write:
    min(region0) of U = (0.0051269729 1.1462055e-14 -1.6809124e-16)

volFieldValue maxdomain_scalar write:
    max(region0) of nuTilda = 4.9883469e-06
    max(region0) of nut = 5.1254636e-10

volFieldValue maxdomain_vector write:
    max(region0) of U = (1.0068305 0.038727607 8.668548e-17)

Time = 51

DILUPBiCGStab:  Solving for Ux, Initial residual = 0.0013327625, Final residual = 1.0157122e-09, No Iterations 3
DILUPBiCGStab:  Solving for Uy, Initial residual = 0.0023582005, Final residual = 8.8863818e-10, No Iterations 6
DICPCG:  Solving for p, Initial residual = 0.001762946, Final residual = 1.676539e-05, No Iterations 83
DICPCG:  Solving for p, Initial residual = 1.6208781e-05, Final residual = 1.586317e-07, No Iterations 38
DICPCG:  Solving for p, Initial residual = 1.5863312e-07, Final residual = 8.6483468e-09, No Iterations 58
time step continuity errors : sum local = 2.1142196e-10, global = -2.0777162e-12, cumulative = 1.702246e-11
DILUPBiCGStab:  Solving for nuTilda, Initial residual = 0.0024557485, Final residual = 2.0315538e-10, No Iterations 3
ExecutionTime = 2.24 s  ClockTime = 2 s

volFieldValue minmaxdomain_scalar write:

volFieldValue minmaxdomain_vector write:

volFieldValue mindomain_scalar write:
    min(region0) of nuTilda = 3.1286584e-08
    min(region0) of nut = 7.9320199e-19

volFieldValue mindomain_vector write:
    min(region0) of U = (0.0049574171 1.3618143e-14 -1.702188e-16)

volFieldValue maxdomain_scalar write:
    max(region0) of nuTilda = 5.3234997e-06
    max(region0) of nut = 6.6479214e-10

volFieldValue maxdomain_vector write:
    max(region0) of U = (1.0068616 0.039312659 8.7883612e-17)

Time = 52

DILUPBiCGStab:  Solving for Ux, Initial residual = 0.0012880036, Final residual = 9.9181571e-10, No Iterations 3
DILUPBiCGStab:  Solving for Uy, Initial residual = 0.0022883612, Final residual = 5.3632997e-09, No Iterations 5
DICPCG:  Solving for p, Initial residual = 0.0016911549, Final residual = 1.6375766e-05, No Iterations 83
DICPCG:  Solving for p, Initial residual = 1.5847095e-05, Final residual = 1.5413466e-07, No Iterations 38
DICPCG:  Solving for p, Initial residual = 1.5413599e-07, Final residual = 8.5779301e-09, No Iterations 58
time step continuity errors : sum local = 2.1700499e-10, global = -2.7001625e-12, cumulative = 1.4322297e-11
DILUPBiCGStab:  Solving for nuTilda, Initial residual = 0.0023934653, Final residual = 2.1441107e-10, No Iterations 3
ExecutionTime = 2.27 s  ClockTime = 2 s

volFieldValue minmaxdomain_scalar write:

volFieldValue minmaxdomain_vector write:

volFieldValue mindomain_scalar write:
    min(region0) of nuTilda = 3.067367e-08
    min(region0) of nut = 7.3284841e-19

volFieldValue mindomain_vector write:
    min(region0) of U = (0.0047947379 1.6105344e-14 -1.722595e-16)

volFieldValue maxdomain_scalar write:
    max(region0) of nuTilda = 5.7014392e-06
    max(region0) of nut = 8.746263e-10

volFieldValue maxdomain_vector write:
    max(region0) of U = (1.0068912 0.039881567 8.9040483e-17)

Time = 53

DILUPBiCGStab:  Solving for Ux, Initial residual = 0.0012450877, Final residual = 9.6587008e-10, No Iterations 3
DILUPBiCGStab:  Solving for Uy, Initial residual = 0.0022208197, Final residual = 4.2323043e-09, No Iterations 5
DICPCG:  Solving for p, Initial residual = 0.0016222629, Final residual = 1.5759759e-05, No Iterations 83
DICPCG:  Solving for p, Initial residual = 1.5264839e-05, Final residual = 1.4799648e-07, No Iterations 38
DICPCG:  Solving for p, Initial residual = 1.4799763e-07, Final residual = 8.3379758e-09, No Iterations 58
time step continuity errors : sum local = 2.1807031e-10, global = -3.6553679e-12, cumulative = 1.0666929e-11
DILUPBiCGStab:  Solving for nuTilda, Initial residual = 0.0023350892, Final residual = 2.2707972e-10, No Iterations 3
ExecutionTime = 2.31 s  ClockTime = 2 s

volFieldValue minmaxdomain_scalar write:

volFieldValue minmaxdomain_vector write:

volFieldValue mindomain_scalar write:
    min(region0) of nuTilda = 3.0080319e-08
    min(region0) of nut = 6.7776782e-19

volFieldValue mindomain_vector write:
    min(region0) of U = (0.0046385828 1.8972475e-14 -1.7423581e-16)

volFieldValue maxdomain_scalar write:
    max(region0) of nuTilda = 6.114384e-06
    max(region0) of nut = 1.1568575e-09

volFieldValue maxdomain_vector write:
    max(region0) of U = (1.0069185 0.040434682 9.0188876e-17)

Time = 54

DILUPBiCGStab:  Solving for Ux, Initial residual = 0.0012039218, Final residual = 9.4133464e-10, No Iterations 3
DILUPBiCGStab:  Solving for Uy, Initial residual = 0.0021552854, Final residual = 3.7041637e-09, No Iterations 5
DICPCG:  Solving for p, Initial residual = 0.0015576365, Final residual = 1.2497808e-05, No Iterations 84
DICPCG:  Solving for p, Initial residual = 1.2116074e-05, Final residual = 1.1910069e-07, No Iterations 31
DICPCG:  Solving for p, Initial residual = 1.1910118e-07, Final residual = 8.9230619e-09, No Iterations 59
time step continuity errors : sum local = 2.4103996e-10, global = 2.1873996e-12, cumulative = 1.2854329e-11
DILUPBiCGStab:  Solving for nuTilda, Initial residual = 0.0022807125, Final residual = 2.4198253e-10, No Iterations 3
ExecutionTime = 2.35 s  ClockTime = 2 s

volFieldValue minmaxdomain_scalar write:

volFieldValue minmaxdomain_vector write:

volFieldValue mindomain_scalar write:
    min(region0) of nuTilda = 2.9505647e-08
    min(region0) of nut = 6.2743934e-19

volFieldValue mindomain_vector write:
    min(region0) of U = (0.0044886224 2.2252556e-14 -1.7621883e-16)

volFieldValue maxdomain_scalar write:
    max(region0) of nuTilda = 6.5648602e-06
    max(region0) of nut = 1.5372744e-09

volFieldValue maxdomain_vector write:
    max(region0) of U = (1.0069431 0.040972027 9.1348149e-17)

Time = 55

DILUPBiCGStab:  Solving for Ux, Initial residual = 0.0011644096, Final residual = 9.1787951e-10, No Iterations 3
DILUPBiCGStab:  Solving for Uy, Initial residual = 0.0020922893, Final residual = 3.6753874e-09, No Iterations 5
DICPCG:  Solving for p, Initial residual = 0.0014968077, Final residual = 1.2101494e-05, No Iterations 84
DICPCG:  Solving for p, Initial residual = 1.1741885e-05, Final residual = 1.1468512e-07, No Iterations 31
DICPCG:  Solving for p, Initial residual = 1.1468554e-07, Final residual = 8.8940969e-09, No Iterations 59
time step continuity errors : sum local = 2.4792492e-10, global = 1.7501762e-12, cumulative = 1.4604505e-11
DILUPBiCGStab:  Solving for nuTilda, Initial residual = 0.0022303406, Final residual = 2.5953438e-10, No Iterations 3
ExecutionTime = 2.39 s  ClockTime = 2 s

volFieldValue minmaxdomain_scalar write:

volFieldValue minmaxdomain_vector write:

volFieldValue mindomain_scalar write:
    min(region0) of nuTilda = 2.8948824e-08
    min(region0) of nut = 5.8139979e-19

volFieldValue mindomain_vector write:
    min(region0) of U = (0.0043445485 2.5858264e-14 -1.7557026e-16)

volFieldValue maxdomain_scalar write:
    max(region0) of nuTilda = 7.0555785e-06
    max(region0) of nut = 2.0509517e-09

volFieldValue maxdomain_vector write:
    max(region0) of U = (1.0069646 0.041493939 9.2478511e-17)

Time = 56

DILUPBiCGStab:  Solving for Ux, Initial residual = 0.0011264645, Final residual = 8.9553211e-10, No Iterations 3
DILUPBiCGStab:  Solving for Uy, Initial residual = 0.0020320393, Final residual = 3.4379215e-09, No Iterations 5
DICPCG:  Solving for p, Initial residual = 0.0014394317, Final residual = 1.1669671e-05, No Iterations 84
DICPCG:  Solving for p, Initial residual = 1.133231e-05, Final residual = 1.1023027e-07, No Iterations 31
DICPCG:  Solving for p, Initial residual = 1.1023061e-07, Final residual = 8.675718e-09, No Iterations 59
time step continuity errors : sum local = 2.4933453e-10, global = 1.2077512e-12, cumulative = 1.5812256e-11
DILUPBiCGStab:  Solving for nuTilda, Initial residual = 0.0021838784, Final residual = 2.7961496e-10, No Iterations 3
ExecutionTime = 2.43 s  ClockTime = 2 s

volFieldValue minmaxdomain_scalar write:

volFieldValue minmaxdomain_vector write:

volFieldValue mindomain_scalar write:
    min(region0) of nuTilda = 2.8409072e-08
    min(region0) of nut = 5.3923661e-19

volFieldValue mindomain_vector write:
    min(region0) of U = (0.0042060721 2.9559853e-14 -1.5777521e-16)

volFieldValue maxdomain_scalar write:
    max(region0) of nuTilda = 7.5892807e-06
    max(region0) of nut = 2.7453423e-09

volFieldValue maxdomain_vector write:
    max(region0) of U = (1.0069854 0.042000709 9.3585209e-17)

Time = 57

DILUPBiCGStab:  Solving for Ux, Initial residual = 0.0010900088, Final residual = 8.741993e-10, No Iterations 3
DILUPBiCGStab:  Solving for Uy, Initial residual = 0.0019740168, Final residual = 3.0571258e-09, No Iterations 5
DICPCG:  Solving for p, Initial residual = 0.0013852729, Final residual = 1.1255757e-05, No Iterations 84
DICPCG:  Solving for p, Initial residual = 1.0939095e-05, Final residual = 1.0927798e-07, No Iterations 30
DICPCG:  Solving for p, Initial residual = 1.0927828e-07, Final residual = 9.9214897e-09, No Iterations 58
time step continuity errors : sum local = 2.9372732e-10, global = 2.0318804e-12, cumulative = 1.7844137e-11
DILUPBiCGStab:  Solving for nuTilda, Initial residual = 0.0021411908, Final residual = 3.02004e-10, No Iterations 3
ExecutionTime = 2.47 s  ClockTime = 2 s

volFieldValue minmaxdomain_scalar write:

volFieldValue minmaxdomain_vector write:

volFieldValue mindomain_scalar write:
    min(region0) of nuTilda = 2.7885661e-08
    min(region0) of nut = 5.0058165e-19

volFieldValue mindomain_vector write:
    min(region0) of U = (0.0040729221 3.3737615e-14 -1.5727846e-16)

volFieldValue maxdomain_scalar write:
    max(region0) of nuTilda = 8.1687411e-06
    max(region0) of nut = 3.6844764e-09

volFieldValue maxdomain_vector write:
    max(region0) of U = (1.0070046 0.042492883 9.4636537e-17)

Time = 58

DILUPBiCGStab:  Solving for Ux, Initial residual = 0.0010549655, Final residual = 8.5308539e-10, No Iterations 3
DILUPBiCGStab:  Solving for Uy, Initial residual = 0.0019180479, Final residual = 9.4620022e-09, No Iterations 5
[...]

Time = 353

DILUPBiCGStab:  Solving for Ux, Initial residual = 3.056768e-07, Final residual = 1.2305514e-12, No Iterations 3
DILUPBiCGStab:  Solving for Uy, Initial residual = 5.4478512e-07, Final residual = 1.1765861e-10, No Iterations 3
DICPCG:  Solving for p, Initial residual = 1.1233885e-06, Final residual = 1.0837072e-08, No Iterations 64
DICPCG:  Solving for p, Initial residual = 1.083706e-08, Final residual = 7.155306e-09, No Iterations 3
DICPCG:  Solving for p, Initial residual = 7.1553062e-09, Final residual = 6.2610956e-09, No Iterations 3
time step continuity errors : sum local = 6.274855e-10, global = 4.8281491e-11, cumulative = -8.6626359e-09
DILUPBiCGStab:  Solving for nuTilda, Initial residual = 5.9260339e-07, Final residual = 9.353412e-13, No Iterations 3
ExecutionTime = 11.54 s  ClockTime = 11 s

volFieldValue minmaxdomain_scalar write:

volFieldValue minmaxdomain_vector write:

volFieldValue mindomain_scalar write:
    min(region0) of nuTilda = 6.7058014e-09
    min(region0) of nut = 1.6739941e-21

volFieldValue mindomain_vector write:
    min(region0) of U = (0.00015477958 1.6711524e-12 -1.0280846e-16)

volFieldValue maxdomain_scalar write:
    max(region0) of nuTilda = 0.00018405298
    max(region0) of nut = 0.00015418174

volFieldValue maxdomain_vector write:
    max(region0) of U = (1.0113883 0.056765382 7.4922148e-17)

Time = 354

DILUPBiCGStab:  Solving for Ux, Initial residual = 3.0263959e-07, Final residual = 1.1809273e-12, No Iterations 3
DILUPBiCGStab:  Solving for Uy, Initial residual = 5.3648161e-07, Final residual = 1.4243914e-10, No Iterations 3
DICPCG:  Solving for p, Initial residual = 1.1042495e-06, Final residual = 1.0673581e-08, No Iterations 64
DICPCG:  Solving for p, Initial residual = 1.0673569e-08, Final residual = 7.029368e-09, No Iterations 3
DICPCG:  Solving for p, Initial residual = 7.0293677e-09, Final residual = 6.139067e-09, No Iterations 3
time step continuity errors : sum local = 6.15256e-10, global = 4.6638156e-11, cumulative = -8.6159978e-09
DILUPBiCGStab:  Solving for nuTilda, Initial residual = 5.7862479e-07, Final residual = 9.1014966e-13, No Iterations 3
ExecutionTime = 11.57 s  ClockTime = 11 s

volFieldValue minmaxdomain_scalar write:

volFieldValue minmaxdomain_vector write:

volFieldValue mindomain_scalar write:
    min(region0) of nuTilda = 6.7020107e-09
    min(region0) of nut = 1.6702121e-21

volFieldValue mindomain_vector write:
    min(region0) of U = (0.00015477054 1.6712401e-12 -1.0280652e-16)

volFieldValue maxdomain_scalar write:
    max(region0) of nuTilda = 0.00018405422
    max(region0) of nut = 0.00015418329

volFieldValue maxdomain_vector write:
    max(region0) of U = (1.0113884 0.056764788 7.4920873e-17)

Time = 355

DILUPBiCGStab:  Solving for Ux, Initial residual = 2.9969624e-07, Final residual = 1.1353129e-12, No Iterations 3
DILUPBiCGStab:  Solving for Uy, Initial residual = 5.2844569e-07, Final residual = 1.8017865e-10, No Iterations 3
DICPCG:  Solving for p, Initial residual = 1.0857801e-06, Final residual = 1.0501363e-08, No Iterations 64
DICPCG:  Solving for p, Initial residual = 1.0501354e-08, Final residual = 6.8994363e-09, No Iterations 3
DICPCG:  Solving for p, Initial residual = 6.899436e-09, Final residual = 6.0160427e-09, No Iterations 3
time step continuity errors : sum local = 6.029271e-10, global = 4.503366e-11, cumulative = -8.5709641e-09
DILUPBiCGStab:  Solving for nuTilda, Initial residual = 5.6511552e-07, Final residual = 8.8580767e-13, No Iterations 3
ExecutionTime = 11.59 s  ClockTime = 11 s

volFieldValue minmaxdomain_scalar write:

volFieldValue minmaxdomain_vector write:

volFieldValue mindomain_scalar write:
    min(region0) of nuTilda = 6.6982728e-09
    min(region0) of nut = 1.6664892e-21

volFieldValue mindomain_vector write:
    min(region0) of U = (0.0001547618 1.6713253e-12 -1.0280458e-16)

volFieldValue maxdomain_scalar write:
    max(region0) of nuTilda = 0.00018405543
    max(region0) of nut = 0.00015418479

volFieldValue maxdomain_vector write:
    max(region0) of U = (1.0113884 0.056764195 7.49196e-17)

Time = 356

DILUPBiCGStab:  Solving for Ux, Initial residual = 2.9684378e-07, Final residual = 1.0936635e-12, No Iterations 3
DILUPBiCGStab:  Solving for Uy, Initial residual = 5.2068122e-07, Final residual = 2.4372518e-10, No Iterations 3
DICPCG:  Solving for p, Initial residual = 1.0679892e-06, Final residual = 1.0318089e-08, No Iterations 64
DICPCG:  Solving for p, Initial residual = 1.0318082e-08, Final residual = 6.7657921e-09, No Iterations 3
DICPCG:  Solving for p, Initial residual = 6.765792e-09, Final residual = 5.8901447e-09, No Iterations 3
time step continuity errors : sum local = 5.9030997e-10, global = 4.3449444e-11, cumulative = -8.5275147e-09
DILUPBiCGStab:  Solving for nuTilda, Initial residual = 5.5206406e-07, Final residual = 8.6229405e-13, No Iterations 3
ExecutionTime = 11.61 s  ClockTime = 11 s

volFieldValue minmaxdomain_scalar write:

volFieldValue minmaxdomain_vector write:

volFieldValue mindomain_scalar write:
    min(region0) of nuTilda = 6.6945869e-09
    min(region0) of nut = 1.6628241e-21

volFieldValue mindomain_vector write:
    min(region0) of U = (0.00015475333 1.6714083e-12 -1.0280265e-16)

volFieldValue maxdomain_scalar write:
    max(region0) of nuTilda = 0.0001840566
    max(region0) of nut = 0.00015418625

volFieldValue maxdomain_vector write:
    max(region0) of U = (1.0113885 0.056763601 7.4918332e-17)

Time = 357

DILUPBiCGStab:  Solving for Ux, Initial residual = 2.9407923e-07, Final residual = 1.0558075e-12, No Iterations 3
DILUPBiCGStab:  Solving for Uy, Initial residual = 5.1316168e-07, Final residual = 3.745948e-10, No Iterations 3
DICPCG:  Solving for p, Initial residual = 1.0511978e-06, Final residual = 1.0124816e-08, No Iterations 64
DICPCG:  Solving for p, Initial residual = 1.012481e-08, Final residual = 6.6277368e-09, No Iterations 3
DICPCG:  Solving for p, Initial residual = 6.6277376e-09, Final residual = 5.7673845e-09, No Iterations 3
time step continuity errors : sum local = 5.7800727e-10, global = 4.1897711e-11, cumulative = -8.485617e-09
DILUPBiCGStab:  Solving for nuTilda, Initial residual = 5.3945537e-07, Final residual = 8.3956811e-13, No Iterations 3
ExecutionTime = 11.64 s  ClockTime = 11 s

volFieldValue minmaxdomain_scalar write:

volFieldValue minmaxdomain_vector write:

volFieldValue mindomain_scalar write:
    min(region0) of nuTilda = 6.6909525e-09
    min(region0) of nut = 1.6592162e-21

volFieldValue mindomain_vector write:
    min(region0) of U = (0.00015474514 1.671489e-12 -1.0280073e-16)

volFieldValue maxdomain_scalar write:
    max(region0) of nuTilda = 0.00018405772
    max(region0) of nut = 0.00015418765

volFieldValue maxdomain_vector write:
    max(region0) of U = (1.0113885 0.056763008 7.491707e-17)

Time = 358

DILUPBiCGStab:  Solving for Ux, Initial residual = 2.9139977e-07, Final residual = 1.0209702e-12, No Iterations 3
DILUPBiCGStab:  Solving for Uy, Initial residual = 5.0589756e-07, Final residual = 8.2064315e-10, No Iterations 3
DICPCG:  Solving for p, Initial residual = 1.0380843e-06, Final residual = 9.922494e-09, No Iterations 64
DICPCG:  Solving for p, Initial residual = 9.9224888e-09, Final residual = 6.4848751e-09, No Iterations 3
DICPCG:  Solving for p, Initial residual = 6.4848748e-09, Final residual = 5.6457112e-09, No Iterations 3
time step continuity errors : sum local = 5.6581341e-10, global = 4.0361902e-11, cumulative = -8.4452551e-09
DILUPBiCGStab:  Solving for nuTilda, Initial residual = 5.2726792e-07, Final residual = 8.1760913e-13, No Iterations 3
ExecutionTime = 11.66 s  ClockTime = 11 s

volFieldValue minmaxdomain_scalar write:

volFieldValue minmaxdomain_vector write:

volFieldValue mindomain_scalar write:
    min(region0) of nuTilda = 6.6873688e-09
    min(region0) of nut = 1.6556643e-21

volFieldValue mindomain_vector write:
    min(region0) of U = (0.00015473722 1.6715674e-12 -1.0279881e-16)

volFieldValue maxdomain_scalar write:
    max(region0) of nuTilda = 0.00018405882
    max(region0) of nut = 0.00015418901

volFieldValue maxdomain_vector write:
    max(region0) of U = (1.0113886 0.056762415 7.4915814e-17)

Time = 359

DILUPBiCGStab:  Solving for Ux, Initial residual = 2.8880264e-07, Final residual = 9.8887383e-13, No Iterations 3
DILUPBiCGStab:  Solving for Uy, Initial residual = 4.9879604e-07, Final residual = 2.256589e-09, No Iterations 3
DICPCG:  Solving for p, Initial residual = 1.0229863e-06, Final residual = 9.7003114e-09, No Iterations 64
DICPCG:  Solving for p, Initial residual = 9.7003047e-09, Final residual = 6.3339191e-09, No Iterations 3
DICPCG:  Solving for p, Initial residual = 6.3339192e-09, Final residual = 5.5145484e-09, No Iterations 3
time step continuity errors : sum local = 5.5266858e-10, global = 3.8825326e-11, cumulative = -8.4064297e-09
DILUPBiCGStab:  Solving for nuTilda, Initial residual = 5.1550087e-07, Final residual = 7.9638058e-13, No Iterations 3
ExecutionTime = 11.68 s  ClockTime = 12 s

volFieldValue minmaxdomain_scalar write:

volFieldValue minmaxdomain_vector write:

volFieldValue mindomain_scalar write:
    min(region0) of nuTilda = 6.6838351e-09
    min(region0) of nut = 1.6521675e-21

volFieldValue mindomain_vector write:
    min(region0) of U = (0.00015472955 1.6716436e-12 -1.0279687e-16)

volFieldValue maxdomain_scalar write:
    max(region0) of nuTilda = 0.00018405987
    max(region0) of nut = 0.00015419033

volFieldValue maxdomain_vector write:
    max(region0) of U = (1.0113886 0.056761822 7.4914536e-17)

Time = 360

DILUPBiCGStab:  Solving for Ux, Initial residual = 2.862852e-07, Final residual = 9.590263e-13, No Iterations 3
DILUPBiCGStab:  Solving for Uy, Initial residual = 4.9285026e-07, Final residual = 3.7239378e-09, No Iterations 3
DICPCG:  Solving for p, Initial residual = 1.0029319e-06, Final residual = 9.489592e-09, No Iterations 64
DICPCG:  Solving for p, Initial residual = 9.4895886e-09, Final residual = 6.1860648e-09, No Iterations 3
DICPCG:  Solving for p, Initial residual = 6.1860654e-09, Final residual = 5.3916581e-09, No Iterations 3
time step continuity errors : sum local = 5.4035225e-10, global = 3.7320638e-11, cumulative = -8.3691091e-09
DILUPBiCGStab:  Solving for nuTilda, Initial residual = 5.0413028e-07, Final residual = 7.7583347e-13, No Iterations 3
ExecutionTime = 11.7 s  ClockTime = 12 s

volFieldValue minmaxdomain_scalar write:

volFieldValue minmaxdomain_vector write:

volFieldValue mindomain_scalar write:
    min(region0) of nuTilda = 6.6803508e-09
    min(region0) of nut = 1.6487251e-21

volFieldValue mindomain_vector write:
    min(region0) of U = (0.00015472213 1.671718e-12 -1.0279498e-16)

volFieldValue maxdomain_scalar write:
    max(region0) of nuTilda = 0.0001840609
    max(region0) of nut = 0.0001541916

volFieldValue maxdomain_vector write:
    max(region0) of U = (1.0113887 0.05676123 7.491329e-17)

Time = 361

DILUPBiCGStab:  Solving for Ux, Initial residual = 2.8384492e-07, Final residual = 9.3149742e-13, No Iterations 3
DILUPBiCGStab:  Solving for Uy, Initial residual = 4.8701954e-07, Final residual = 2.5333408e-09, No Iterations 3
DICPCG:  Solving for p, Initial residual = 9.9216391e-07, Final residual = 9.2780352e-09, No Iterations 64
DICPCG:  Solving for p, Initial residual = 9.2780305e-09, Final residual = 6.0348188e-09, No Iterations 3
DICPCG:  Solving for p, Initial residual = 6.034819e-09, Final residual = 5.2640909e-09, No Iterations 3
time step continuity errors : sum local = 5.2756784e-10, global = 3.5843019e-11, cumulative = -8.3332661e-09
DILUPBiCGStab:  Solving for nuTilda, Initial residual = 4.9313943e-07, Final residual = 7.5599962e-13, No Iterations 3
ExecutionTime = 11.73 s  ClockTime = 12 s


SIMPLE solution converged in 361 iterations

volFieldValue minmaxdomain_scalar write:

volFieldValue minmaxdomain_vector write:

volFieldValue mindomain_scalar write:
    min(region0) of nuTilda = 6.6769151e-09
    min(region0) of nut = 1.645336e-21

volFieldValue mindomain_vector write:
    min(region0) of U = (0.00015471494 1.6717902e-12 -1.0279309e-16)

volFieldValue maxdomain_scalar write:
    max(region0) of nuTilda = 0.00018406189
    max(region0) of nut = 0.00015419284

volFieldValue maxdomain_vector write:
    max(region0) of U = (1.0113887 0.056760638 7.4912061e-17)

End

/*---------------------------------------------------------------------------*\
| =========                 |                                                 |
| \\      /  F ield         | OpenFOAM: The Open Source CFD Toolbox           |
|  \\    /   O peration     | Version:  2206                                  |
|   \\  /    A nd           | Website:  www.openfoam.com                      |
|    \\/     M anipulation  |                                                 |
\*---------------------------------------------------------------------------*/
Build  : _da9441b0-20260127 OPENFOAM=2206 patch=260127 version=2206
Arch   : "LSB;label=32;scalar=64"
Exec   : simpleFoam -postProcess -func wallShearStress -latestTime
Date   : Jun 12 2026
Time   : 12:56:39
Host   : NotebookdoDan
PID    : 120054
I/O    : uncollated
Case   : /home/danilom/Trabalho_Modelagem_Turbulencia/GT2/RANS/SA_LRN
nProcs : 1
trapFpe: Floating point exception trapping enabled (FOAM_SIGFPE).
fileModificationChecking : Monitoring run-time modified files using timeStampMaster (fileModificationSkew 5, maxFileModificationPolls 20)
allowSystemOperations : Allowing user-supplied system call operations

// * * * * * * * * * * * * * * * * * * * * * * * * * * * * * * * * * * * * * //
Create time

--> FOAM Warning : 
    From static Foam::IOstreamOption::compressionType Foam::IOstreamOption::compressionEnum(const Foam::word&, compressionType)
    in file db/IOstreams/IOstreams/IOstreamOption.C at line 115
    Unknown compression specifier 'uncompressed', using compression off
Create mesh for time = 361


SIMPLE: convergence criteria
    field p	 tolerance 1e-06
    field U	 tolerance 1e-06
    field "(nuTilda)"	 tolerance 1e-06

wallShearStress wallShearStress:
    processing all wall patches

Time = 361
Reading field p

Reading field U

Reading/calculating face flux field phi

Selecting incompressible transport model Newtonian
Selecting turbulence model type RAS
Selecting RAS turbulence model SpalartAllmaras
Selecting patchDistMethod meshWave
RAS
{
    RASModel        SpalartAllmaras;
    turbulence      on;
    printCoeffs     on;
    sigmaNut        0.66666667;
    kappa           0.41;
    Cb1             0.1355;
    Cb2             0.622;
    Cw2             0.3;
    Cw3             2;
    Cv1             7.1;
    Cs              0.3;
}

No MRF models present

No finite volume options present
wallShearStress wallShearStress write:
    writing field wallShearStress
    min/max(bottom) = (-0.047234664 -0.0024952822 -2.0535189e-16), (-0.0023153361 -1.1546888e-10 5.1098826e-18)

End

/*---------------------------------------------------------------------------*\
| =========                 |                                                 |
| \\      /  F ield         | OpenFOAM: The Open Source CFD Toolbox           |
|  \\    /   O peration     | Version:  2206                                  |
|   \\  /    A nd           | Website:  www.openfoam.com                      |
|    \\/     M anipulation  |                                                 |
\*---------------------------------------------------------------------------*/
Build  : _da9441b0-20260127 OPENFOAM=2206 patch=260127 version=2206
Arch   : "LSB;label=32;scalar=64"
Exec   : simpleFoam -postProcess -func yPlus -latestTime
Date   : Jun 12 2026
Time   : 12:56:39
Host   : NotebookdoDan
PID    : 120055
I/O    : uncollated
Case   : /home/danilom/Trabalho_Modelagem_Turbulencia/GT2/RANS/SA_LRN
nProcs : 1
trapFpe: Floating point exception trapping enabled (FOAM_SIGFPE).
fileModificationChecking : Monitoring run-time modified files using timeStampMaster (fileModificationSkew 5, maxFileModificationPolls 20)
allowSystemOperations : Allowing user-supplied system call operations

// * * * * * * * * * * * * * * * * * * * * * * * * * * * * * * * * * * * * * //
Create time

--> FOAM Warning : 
    From static Foam::IOstreamOption::compressionType Foam::IOstreamOption::compressionEnum(const Foam::word&, compressionType)
    in file db/IOstreams/IOstreams/IOstreamOption.C at line 115
    Unknown compression specifier 'uncompressed', using compression off
Create mesh for time = 361


SIMPLE: convergence criteria
    field p	 tolerance 1e-06
    field U	 tolerance 1e-06
    field "(nuTilda)"	 tolerance 1e-06

Time = 361
Reading field p

Reading field U

Reading/calculating face flux field phi

Selecting incompressible transport model Newtonian
Selecting turbulence model type RAS
Selecting RAS turbulence model SpalartAllmaras
Selecting patchDistMethod meshWave
RAS
{
    RASModel        SpalartAllmaras;
    turbulence      on;
    printCoeffs     on;
    sigmaNut        0.66666667;
    kappa           0.41;
    Cb1             0.1355;
    Cb2             0.622;
    Cw2             0.3;
    Cw3             2;
    Cv1             7.1;
    Cs              0.3;
}

No MRF models present

No finite volume options present
yPlus yPlus write:
    writing field yPlus
    patch bottom y+ : min = 0.0032153276, max = 0.014528402, average = 0.0039947412

End

/*---------------------------------------------------------------------------*\
| =========                 |                                                 |
| \\      /  F ield         | OpenFOAM: The Open Source CFD Toolbox           |
|  \\    /   O peration     | Version:  2206                                  |
|   \\  /    A nd           | Website:  www.openfoam.com                      |
|    \\/     M anipulation  |                                                 |
\*---------------------------------------------------------------------------*/
Build  : _da9441b0-20260127 OPENFOAM=2206 patch=260127 version=2206
Arch   : "LSB;label=32;scalar=64"
Exec   : simpleFoam -postProcess -func sampleDict -latestTime
Date   : Jun 12 2026
Time   : 12:56:39
Host   : NotebookdoDan
PID    : 120056
I/O    : uncollated
Case   : /home/danilom/Trabalho_Modelagem_Turbulencia/GT2/RANS/SA_LRN
nProcs : 1
trapFpe: Floating point exception trapping enabled (FOAM_SIGFPE).
fileModificationChecking : Monitoring run-time modified files using timeStampMaster (fileModificationSkew 5, maxFileModificationPolls 20)
allowSystemOperations : Allowing user-supplied system call operations

// * * * * * * * * * * * * * * * * * * * * * * * * * * * * * * * * * * * * * //
Create time

--> FOAM Warning : 
    From static Foam::IOstreamOption::compressionType Foam::IOstreamOption::compressionEnum(const Foam::word&, compressionType)
    in file db/IOstreams/IOstreams/IOstreamOption.C at line 115
    Unknown compression specifier 'uncompressed', using compression off
Create mesh for time = 361


SIMPLE: convergence criteria
    field p	 tolerance 1e-06
    field U	 tolerance 1e-06
    field "(nuTilda)"	 tolerance 1e-06

Sampled set:
    profile0 -> raw
    profile1 -> raw

Time = 361
Reading field p

Reading field U

Reading/calculating face flux field phi

Selecting incompressible transport model Newtonian
Selecting turbulence model type RAS
Selecting RAS turbulence model SpalartAllmaras
Selecting patchDistMethod meshWave
RAS
{
    RASModel        SpalartAllmaras;
    turbulence      on;
    printCoeffs     on;
    sigmaNut        0.66666667;
    kappa           0.41;
    Cb1             0.1355;
    Cb2             0.622;
    Cw2             0.3;
    Cw3             2;
    Cv1             7.1;
    Cs              0.3;
}

No MRF models present

No finite volume options present
--> FOAM Warning : 
    From Foam::IOobjectList Foam::sampledSets::preCheckFields(unsigned int)
    in file sampledSet/sampledSets/sampledSets.C at line 219
    
Cannot find registered field matching 1(wallShearStress)

End

