/*---------------------------------------------------------------------------*\
| =========                 |                                                 |
| \\      /  F ield         | OpenFOAM: The Open Source CFD Toolbox           |
|  \\    /   O peration     | Version:  2206                                  |
|   \\  /    A nd           | Website:  www.openfoam.com                      |
|    \\/     M anipulation  |                                                 |
\*---------------------------------------------------------------------------*/
Build  : _da9441b0-20260127 OPENFOAM=2206 patch=260127 version=2206
Arch   : "LSB;label=32;scalar=64"
Exec   : simpleFoam
Date   : Jun 10 2026
Time   : 22:04:56
Host   : NotebookdoDan
PID    : 62950
I/O    : uncollated
Case   : /home/danilom/Trabalho_Modelagem_Turbulencia/GT1/laminar
nProcs : 1
trapFpe: Floating point exception trapping enabled (FOAM_SIGFPE).
fileModificationChecking : Monitoring run-time modified files using timeStampMaster (fileModificationSkew 5, maxFileModificationPolls 20)
allowSystemOperations : Allowing user-supplied system call operations

// * * * * * * * * * * * * * * * * * * * * * * * * * * * * * * * * * * * * * //
Create time

--> FOAM Warning : 
    From static Foam::IOstreamOption::compressionType Foam::IOstreamOption::compressionEnum(const Foam::word&, compressionType)
    in file db/IOstreams/IOstreams/IOstreamOption.C at line 115
    Unknown compression specifier 'uncompressed', using compression off
Create mesh for time = 0


SIMPLE: convergence criteria
    field p	 tolerance 1e-06
    field U	 tolerance 1e-06
    field "(k|omega)"	 tolerance 1e-06

Reading field p

Reading field U

Reading/calculating face flux field phi

Selecting incompressible transport model Newtonian
Selecting turbulence model type laminar
Selecting laminar stress model Stokes
No MRF models present

No finite volume options present

Starting time loop

--> FOAM Warning : 
Unknown function type wallShearStress

Valid function types :

25
(
ObukhovLength
abort
areaWrite
coded
ensightWrite
multiRegion
parProfiling
patchProbes
probes
psiReactionThermoMoleFractions
removeRegisteredObject
rhoReactionThermoMoleFractions
runTimeControl
setTimeStep
sets
solverInfo
surfaces
syncObjects
systemCall
thermoCoupleProbes
timeActivatedFileUpdate
timeInfo
vtkWrite
writeDictionary
writeObjects
)



    From static Foam::autoPtr<Foam::functionObject> Foam::functionObject::New(const Foam::word&, const Foam::Time&, const Foam::dictionary&)
    in file db/functionObjects/functionObject/functionObject.C at line 129.
--> loading function object 'wallShearStress1'

Time = 1

DILUPBiCGStab:  Solving for Ux, Initial residual = 1, Final residual = 3.95330172835e-09, No Iterations 5
DILUPBiCGStab:  Solving for Uy, Initial residual = 0.576458724794, Final residual = 3.30788819484e-09, No Iterations 5
DILUPBiCGStab:  Solving for Uz, Initial residual = 0.102098259544, Final residual = 4.2809509273e-09, No Iterations 4
DICPCG:  Solving for p, Initial residual = 1, Final residual = 0.00117280578699, No Iterations 102
DICPCG:  Solving for p, Initial residual = 5.8055212529e-06, Final residual = 1.47919944745e-08, No Iterations 3
DICPCG:  Solving for p, Initial residual = 1.47920268911e-08, Final residual = 2.42331999499e-10, No Iterations 3
time step continuity errors : sum local = 7.66290682108e-11, global = -7.46977006228e-12, cumulative = -7.46977006228e-12
ExecutionTime = 0.03 s  ClockTime = 0 s

Time = 2

DILUPBiCGStab:  Solving for Ux, Initial residual = 0.198723440295, Final residual = 6.47052678885e-09, No Iterations 4
DILUPBiCGStab:  Solving for Uy, Initial residual = 0.261600688087, Final residual = 1.22688744742e-09, No Iterations 5
DILUPBiCGStab:  Solving for Uz, Initial residual = 0.40444719754, Final residual = 2.0613567759e-09, No Iterations 4
DICPCG:  Solving for p, Initial residual = 0.0172405660486, Final residual = 0.000106323711677, No Iterations 101
DICPCG:  Solving for p, Initial residual = 7.03193367672e-05, Final residual = 3.07455042286e-07, No Iterations 3
DICPCG:  Solving for p, Initial residual = 3.07466671329e-07, Final residual = 9.56919316377e-09, No Iterations 4
time step continuity errors : sum local = 3.2099559545e-09, global = -4.21911751898e-10, cumulative = -4.2938152196e-10
ExecutionTime = 0.04 s  ClockTime = 0 s

Time = 3

DILUPBiCGStab:  Solving for Ux, Initial residual = 0.104965844871, Final residual = 2.78520279408e-09, No Iterations 4
DILUPBiCGStab:  Solving for Uy, Initial residual = 0.185221178895, Final residual = 6.97354855699e-09, No Iterations 4
DILUPBiCGStab:  Solving for Uz, Initial residual = 0.348784495651, Final residual = 2.37125789036e-09, No Iterations 4
DICPCG:  Solving for p, Initial residual = 0.0171951340423, Final residual = 8.00004258632e-05, No Iterations 101
DICPCG:  Solving for p, Initial residual = 0.000102422381913, Final residual = 6.00223069399e-07, No Iterations 3
DICPCG:  Solving for p, Initial residual = 6.00261277366e-07, Final residual = 9.91065676224e-09, No Iterations 18
time step continuity errors : sum local = 2.3457634821e-09, global = 2.85796844982e-10, cumulative = -1.43584676978e-10
ExecutionTime = 0.05 s  ClockTime = 0 s

Time = 4

DILUPBiCGStab:  Solving for Ux, Initial residual = 0.0653976591505, Final residual = 1.71584842437e-09, No Iterations 4
DILUPBiCGStab:  Solving for Uy, Initial residual = 0.145769060884, Final residual = 4.28674835217e-09, No Iterations 4
DILUPBiCGStab:  Solving for Uz, Initial residual = 0.279926500819, Final residual = 5.96644951059e-09, No Iterations 4
DICPCG:  Solving for p, Initial residual = 0.018609307361, Final residual = 8.90302772193e-05, No Iterations 101
DICPCG:  Solving for p, Initial residual = 0.000143313151633, Final residual = 1.00757332152e-06, No Iterations 3
DICPCG:  Solving for p, Initial residual = 1.00765306137e-06, Final residual = 9.79150688535e-09, No Iterations 16
time step continuity errors : sum local = 1.56811406196e-09, global = 1.86849827434e-10, cumulative = 4.32651504563e-11
ExecutionTime = 0.07 s  ClockTime = 0 s

Time = 5

DILUPBiCGStab:  Solving for Ux, Initial residual = 0.0440749455989, Final residual = 9.85946895781e-09, No Iterations 4
DILUPBiCGStab:  Solving for Uy, Initial residual = 0.127236286237, Final residual = 2.60016700333e-09, No Iterations 4
DILUPBiCGStab:  Solving for Uz, Initial residual = 0.177272488752, Final residual = 1.95005293455e-10, No Iterations 5
DICPCG:  Solving for p, Initial residual = 0.0235212292421, Final residual = 0.000103045290575, No Iterations 101
DICPCG:  Solving for p, Initial residual = 0.00014336262238, Final residual = 1.00419173997e-06, No Iterations 3
DICPCG:  Solving for p, Initial residual = 1.00425337532e-06, Final residual = 1.00092564559e-08, No Iterations 18
time step continuity errors : sum local = 1.3684997888e-09, global = 1.60806826042e-10, cumulative = 2.04071976498e-10
ExecutionTime = 0.07 s  ClockTime = 0 s

Time = 6

DILUPBiCGStab:  Solving for Ux, Initial residual = 0.032698341231, Final residual = 9.536508835e-09, No Iterations 4
DILUPBiCGStab:  Solving for Uy, Initial residual = 0.114465801439, Final residual = 1.55213940754e-09, No Iterations 4
DILUPBiCGStab:  Solving for Uz, Initial residual = 0.116685273387, Final residual = 1.36224617383e-09, No Iterations 4
DICPCG:  Solving for p, Initial residual = 0.0271939595345, Final residual = 0.000104548885879, No Iterations 101
DICPCG:  Solving for p, Initial residual = 0.000114024285164, Final residual = 8.48684639869e-07, No Iterations 4
DICPCG:  Solving for p, Initial residual = 8.48722097244e-07, Final residual = 9.69102655675e-09, No Iterations 40
time step continuity errors : sum local = 1.36146084303e-09, global = 1.63172126184e-10, cumulative = 3.67244102682e-10
ExecutionTime = 0.09 s  ClockTime = 0 s

Time = 7

DILUPBiCGStab:  Solving for Ux, Initial residual = 0.0266454491956, Final residual = 3.31804259595e-09, No Iterations 4
DILUPBiCGStab:  Solving for Uy, Initial residual = 0.100061098393, Final residual = 1.10528813359e-09, No Iterations 4
DILUPBiCGStab:  Solving for Uz, Initial residual = 0.0867040182235, Final residual = 4.67885742019e-09, No Iterations 4
DICPCG:  Solving for p, Initial residual = 0.0262111735648, Final residual = 0.000247576551869, No Iterations 29
DICPCG:  Solving for p, Initial residual = 0.00024439786474, Final residual = 6.88334626409e-07, No Iterations 100
DICPCG:  Solving for p, Initial residual = 6.90631912009e-07, Final residual = 6.58303214288e-09, No Iterations 3
time step continuity errors : sum local = 9.60783632532e-10, global = 2.56981832653e-12, cumulative = 3.69813921008e-10
ExecutionTime = 0.1 s  ClockTime = 0 s

Time = 8

DILUPBiCGStab:  Solving for Ux, Initial residual = 0.0228231173907, Final residual = 5.14215379137e-09, No Iterations 4
DILUPBiCGStab:  Solving for Uy, Initial residual = 0.0837136282322, Final residual = 8.80338784363e-09, No Iterations 4
DILUPBiCGStab:  Solving for Uz, Initial residual = 0.0716994585409, Final residual = 5.92281113903e-09, No Iterations 4
DICPCG:  Solving for p, Initial residual = 0.0236434662738, Final residual = 0.000214981953748, No Iterations 89
DICPCG:  Solving for p, Initial residual = 0.000215453991967, Final residual = 1.40187421624e-06, No Iterations 99
DICPCG:  Solving for p, Initial residual = 1.40337770407e-06, Final residual = 7.34958590781e-09, No Iterations 6
time step continuity errors : sum local = 1.06697054055e-09, global = -3.12577530747e-11, cumulative = 3.38556167934e-10
ExecutionTime = 0.12 s  ClockTime = 0 s

Time = 9

DILUPBiCGStab:  Solving for Ux, Initial residual = 0.0200229576185, Final residual = 2.23166994509e-09, No Iterations 4
DILUPBiCGStab:  Solving for Uy, Initial residual = 0.0683097574782, Final residual = 7.43302229055e-09, No Iterations 4
DILUPBiCGStab:  Solving for Uz, Initial residual = 0.0618643001725, Final residual = 3.40281623924e-09, No Iterations 4
DICPCG:  Solving for p, Initial residual = 0.0211484073636, Final residual = 0.000128847703478, No Iterations 99
DICPCG:  Solving for p, Initial residual = 0.000133238095607, Final residual = 4.97820638921e-07, No Iterations 5
DICPCG:  Solving for p, Initial residual = 4.97847086676e-07, Final residual = 5.74278776891e-09, No Iterations 98
time step continuity errors : sum local = 8.07492070461e-10, global = -1.81509084756e-12, cumulative = 3.36741077086e-10
ExecutionTime = 0.13 s  ClockTime = 0 s

Time = 10

DILUPBiCGStab:  Solving for Ux, Initial residual = 0.0177164582863, Final residual = 1.59683504153e-09, No Iterations 4
DILUPBiCGStab:  Solving for Uy, Initial residual = 0.056285445047, Final residual = 1.664859971e-09, No Iterations 4
DILUPBiCGStab:  Solving for Uz, Initial residual = 0.0551605577034, Final residual = 2.30766211955e-09, No Iterations 4
DICPCG:  Solving for p, Initial residual = 0.0191554706837, Final residual = 9.38106994227e-05, No Iterations 100
DICPCG:  Solving for p, Initial residual = 9.80621013235e-05, Final residual = 6.42492056203e-07, No Iterations 4
DICPCG:  Solving for p, Initial residual = 6.42513852277e-07, Final residual = 8.79322290093e-09, No Iterations 69
time step continuity errors : sum local = 1.19473404439e-09, global = 1.59200158925e-10, cumulative = 4.95941236011e-10
ExecutionTime = 0.14 s  ClockTime = 0 s

Time = 11

DILUPBiCGStab:  Solving for Ux, Initial residual = 0.0157869925824, Final residual = 1.2332770281e-09, No Iterations 4
DILUPBiCGStab:  Solving for Uy, Initial residual = 0.0482796042704, Final residual = 6.94935218685e-09, No Iterations 4
DILUPBiCGStab:  Solving for Uz, Initial residual = 0.0496746972538, Final residual = 8.30025374213e-09, No Iterations 3
DICPCG:  Solving for p, Initial residual = 0.0175776458442, Final residual = 0.00015637235963, No Iterations 99
DICPCG:  Solving for p, Initial residual = 0.00016232522294, Final residual = 1.53854413321e-06, No Iterations 6
DICPCG:  Solving for p, Initial residual = 1.53864145698e-06, Final residual = 4.76955444181e-09, No Iterations 100
time step continuity errors : sum local = 6.32932326326e-10, global = -5.47619890153e-12, cumulative = 4.9046503711e-10
ExecutionTime = 0.16 s  ClockTime = 0 s

Time = 12

DILUPBiCGStab:  Solving for Ux, Initial residual = 0.014253248332, Final residual = 9.27587482272e-09, No Iterations 3
DILUPBiCGStab:  Solving for Uy, Initial residual = 0.0423639863448, Final residual = 4.09209150572e-09, No Iterations 4
DILUPBiCGStab:  Solving for Uz, Initial residual = 0.0454322846339, Final residual = 6.81553358368e-09, No Iterations 3
DICPCG:  Solving for p, Initial residual = 0.0159878988327, Final residual = 5.68428669363e-05, No Iterations 100
DICPCG:  Solving for p, Initial residual = 5.84280096952e-05, Final residual = 3.0685982142e-07, No Iterations 4
DICPCG:  Solving for p, Initial residual = 3.06866223076e-07, Final residual = 9.43449287081e-09, No Iterations 61
time step continuity errors : sum local = 1.23168932388e-09, global = 1.18402693561e-10, cumulative = 6.08867730671e-10
ExecutionTime = 0.17 s  ClockTime = 0 s

Time = 13

DILUPBiCGStab:  Solving for Ux, Initial residual = 0.0129669586555, Final residual = 7.5392041066e-09, No Iterations 3
DILUPBiCGStab:  Solving for Uy, Initial residual = 0.0373609756968, Final residual = 4.3899616025e-09, No Iterations 4
DILUPBiCGStab:  Solving for Uz, Initial residual = 0.0419033897226, Final residual = 5.60694132883e-09, No Iterations 3
DICPCG:  Solving for p, Initial residual = 0.0143908229389, Final residual = 4.69410588425e-05, No Iterations 100
DICPCG:  Solving for p, Initial residual = 4.79665247047e-05, Final residual = 1.82857143844e-07, No Iterations 4
DICPCG:  Solving for p, Initial residual = 1.82859747269e-07, Final residual = 9.33422372455e-09, No Iterations 51
time step continuity errors : sum local = 1.2019400747e-09, global = 1.16144863916e-10, cumulative = 7.25012594587e-10
ExecutionTime = 0.19 s  ClockTime = 0 s

Time = 14

DILUPBiCGStab:  Solving for Ux, Initial residual = 0.0118772828859, Final residual = 6.4341864599e-09, No Iterations 3
DILUPBiCGStab:  Solving for Uy, Initial residual = 0.033161230914, Final residual = 2.39463214837e-09, No Iterations 4
DILUPBiCGStab:  Solving for Uz, Initial residual = 0.0390655643677, Final residual = 4.75299194458e-09, No Iterations 3
DICPCG:  Solving for p, Initial residual = 0.0128381977607, Final residual = 7.57367628849e-05, No Iterations 92
DICPCG:  Solving for p, Initial residual = 7.72106153714e-05, Final residual = 1.68860711252e-07, No Iterations 99
DICPCG:  Solving for p, Initial residual = 1.68917965104e-07, Final residual = 6.27441918671e-09, No Iterations 3
time step continuity errors : sum local = 7.96826617724e-10, global = -6.1266962684e-12, cumulative = 7.18885898319e-10
ExecutionTime = 0.21 s  ClockTime = 0 s

Time = 15

DILUPBiCGStab:  Solving for Ux, Initial residual = 0.0109438700147, Final residual = 5.45679614219e-09, No Iterations 3
DILUPBiCGStab:  Solving for Uy, Initial residual = 0.0291169285928, Final residual = 1.94671623512e-09, No Iterations 4
DILUPBiCGStab:  Solving for Uz, Initial residual = 0.036757417357, Final residual = 3.9618704149e-09, No Iterations 3
DICPCG:  Solving for p, Initial residual = 0.0114280018096, Final residual = 7.19162612151e-05, No Iterations 92
DICPCG:  Solving for p, Initial residual = 7.32868381778e-05, Final residual = 2.8681522258e-07, No Iterations 100
DICPCG:  Solving for p, Initial residual = 2.86808518691e-07, Final residual = 9.04508226081e-09, No Iterations 3
time step continuity errors : sum local = 1.13272688681e-09, global = 2.2142553388e-11, cumulative = 7.41028451707e-10
ExecutionTime = 0.22 s  ClockTime = 0 s

Time = 16

DILUPBiCGStab:  Solving for Ux, Initial residual = 0.01015523728, Final residual = 4.61612146164e-09, No Iterations 3
DILUPBiCGStab:  Solving for Uy, Initial residual = 0.025515287366, Final residual = 1.73474060894e-09, No Iterations 4
DILUPBiCGStab:  Solving for Uz, Initial residual = 0.0348893940675, Final residual = 3.54095845455e-09, No Iterations 3
DICPCG:  Solving for p, Initial residual = 0.0102617023664, Final residual = 9.29855673898e-05, No Iterations 93
DICPCG:  Solving for p, Initial residual = 9.46571753858e-05, Final residual = 8.32629128203e-07, No Iterations 99
DICPCG:  Solving for p, Initial residual = 8.32836265825e-07, Final residual = 3.8992041902e-09, No Iterations 4
time step continuity errors : sum local = 4.81726801396e-10, global = 5.17565958265e-12, cumulative = 7.46204111289e-10
ExecutionTime = 0.23 s  ClockTime = 0 s

Time = 17

DILUPBiCGStab:  Solving for Ux, Initial residual = 0.00945187792049, Final residual = 3.98067545394e-09, No Iterations 3
DILUPBiCGStab:  Solving for Uy, Initial residual = 0.022603043463, Final residual = 1.7094725061e-09, No Iterations 4
DILUPBiCGStab:  Solving for Uz, Initial residual = 0.0331931719033, Final residual = 3.04382078714e-09, No Iterations 3
DICPCG:  Solving for p, Initial residual = 0.00923318670895, Final residual = 2.29393434152e-05, No Iterations 100
DICPCG:  Solving for p, Initial residual = 2.332963047e-05, Final residual = 2.05222393011e-07, No Iterations 3
DICPCG:  Solving for p, Initial residual = 2.0522302591e-07, Final residual = 6.64013687887e-09, No Iterations 7
time step continuity errors : sum local = 8.09851788996e-10, global = -6.79260396197e-11, cumulative = 6.7827807167e-10
ExecutionTime = 0.25 s  ClockTime = 0 s

Time = 18

DILUPBiCGStab:  Solving for Ux, Initial residual = 0.00881768417623, Final residual = 3.54969198905e-09, No Iterations 3
DILUPBiCGStab:  Solving for Uy, Initial residual = 0.0200919965542, Final residual = 2.22781866255e-09, No Iterations 4
DILUPBiCGStab:  Solving for Uz, Initial residual = 0.0317461674207, Final residual = 2.79821443426e-09, No Iterations 3
DICPCG:  Solving for p, Initial residual = 0.00827704418002, Final residual = 2.43416548701e-05, No Iterations 100
DICPCG:  Solving for p, Initial residual = 2.47247436549e-05, Final residual = 1.93223591389e-07, No Iterations 4
DICPCG:  Solving for p, Initial residual = 1.93224812498e-07, Final residual = 4.44445522394e-09, No Iterations 7
time step continuity errors : sum local = 5.35533851067e-10, global = -8.08251042616e-11, cumulative = 5.97452967408e-10
ExecutionTime = 0.26 s  ClockTime = 0 s

Time = 19

DILUPBiCGStab:  Solving for Ux, Initial residual = 0.00824436099408, Final residual = 3.19458484467e-09, No Iterations 3
DILUPBiCGStab:  Solving for Uy, Initial residual = 0.0177700420872, Final residual = 8.99738469148e-09, No Iterations 3
DILUPBiCGStab:  Solving for Uz, Initial residual = 0.0305885470471, Final residual = 2.5219915067e-09, No Iterations 3
DICPCG:  Solving for p, Initial residual = 0.00741010941696, Final residual = 2.37223256675e-05, No Iterations 100
DICPCG:  Solving for p, Initial residual = 2.40655112366e-05, Final residual = 1.42921768954e-07, No Iterations 4
DICPCG:  Solving for p, Initial residual = 1.42922932461e-07, Final residual = 9.94498166342e-09, No Iterations 7
time step continuity errors : sum local = 1.18498696118e-09, global = -6.6236628216e-11, cumulative = 5.31216339192e-10
ExecutionTime = 0.26 s  ClockTime = 0 s

Time = 20

DILUPBiCGStab:  Solving for Ux, Initial residual = 0.00773334071281, Final residual = 2.87521547453e-09, No Iterations 3
DILUPBiCGStab:  Solving for Uy, Initial residual = 0.0158538826669, Final residual = 7.89273724969e-09, No Iterations 3
DILUPBiCGStab:  Solving for Uz, Initial residual = 0.0294601589273, Final residual = 2.21622340243e-09, No Iterations 3
DICPCG:  Solving for p, Initial residual = 0.00662661952793, Final residual = 2.17578080074e-05, No Iterations 100
DICPCG:  Solving for p, Initial residual = 2.20461852954e-05, Final residual = 1.08795596965e-07, No Iterations 4
DICPCG:  Solving for p, Initial residual = 1.08796244623e-07, Final residual = 6.56911236372e-09, No Iterations 6
time step continuity errors : sum local = 7.74693307717e-10, global = -3.91670819462e-11, cumulative = 4.92049257246e-10
ExecutionTime = 0.28 s  ClockTime = 0 s

Time = 21

DILUPBiCGStab:  Solving for Ux, Initial residual = 0.00728163508176, Final residual = 2.5903068392e-09, No Iterations 3
DILUPBiCGStab:  Solving for Uy, Initial residual = 0.0142691999956, Final residual = 6.41622918712e-09, No Iterations 3
DILUPBiCGStab:  Solving for Uz, Initial residual = 0.0286602527231, Final residual = 1.92859601466e-09, No Iterations 3
DICPCG:  Solving for p, Initial residual = 0.00590813185887, Final residual = 1.9187678656e-05, No Iterations 100
DICPCG:  Solving for p, Initial residual = 1.94233807814e-05, Final residual = 1.85048043161e-07, No Iterations 4
DICPCG:  Solving for p, Initial residual = 1.8504879844e-07, Final residual = 9.3802390772e-09, No Iterations 7
time step continuity errors : sum local = 1.0954530071e-09, global = -6.11795927214e-11, cumulative = 4.30869664524e-10
ExecutionTime = 0.29 s  ClockTime = 0 s

Time = 22

DILUPBiCGStab:  Solving for Ux, Initial residual = 0.00686970660963, Final residual = 2.3403396686e-09, No Iterations 3
DILUPBiCGStab:  Solving for Uy, Initial residual = 0.0129277880123, Final residual = 5.12347657302e-09, No Iterations 3
DILUPBiCGStab:  Solving for Uz, Initial residual = 0.0276006537407, Final residual = 1.76797429705e-09, No Iterations 3
DICPCG:  Solving for p, Initial residual = 0.00524314360388, Final residual = 1.64848448817e-05, No Iterations 100
DICPCG:  Solving for p, Initial residual = 1.66736468904e-05, Final residual = 1.29912120957e-07, No Iterations 4
DICPCG:  Solving for p, Initial residual = 1.29912219424e-07, Final residual = 5.54771879735e-09, No Iterations 6
time step continuity errors : sum local = 6.41914173234e-10, global = -3.48106847326e-11, cumulative = 3.96058979792e-10
ExecutionTime = 0.3 s  ClockTime = 0 s

Time = 23

DILUPBiCGStab:  Solving for Ux, Initial residual = 0.0064916780739, Final residual = 2.11861839314e-09, No Iterations 3
DILUPBiCGStab:  Solving for Uy, Initial residual = 0.0117999400893, Final residual = 4.27227544698e-09, No Iterations 3
DILUPBiCGStab:  Solving for Uz, Initial residual = 0.0269308878143, Final residual = 1.69396268923e-09, No Iterations 3
DICPCG:  Solving for p, Initial residual = 0.004652954357, Final residual = 3.42679624803e-05, No Iterations 99
DICPCG:  Solving for p, Initial residual = 3.46302696137e-05, Final residual = 2.70288045809e-07, No Iterations 7
DICPCG:  Solving for p, Initial residual = 2.70289491512e-07, Final residual = 2.6287555184e-09, No Iterations 99
time step continuity errors : sum local = 3.01564949814e-10, global = 1.64872548992e-12, cumulative = 3.97707705282e-10
ExecutionTime = 0.32 s  ClockTime = 0 s

Time = 24

DILUPBiCGStab:  Solving for Ux, Initial residual = 0.00614286653912, Final residual = 1.95355132192e-09, No Iterations 3
DILUPBiCGStab:  Solving for Uy, Initial residual = 0.0109035386854, Final residual = 3.68471820007e-09, No Iterations 3
DILUPBiCGStab:  Solving for Uz, Initial residual = 0.0263049077522, Final residual = 1.61875304384e-09, No Iterations 3
DICPCG:  Solving for p, Initial residual = 0.00413010447507, Final residual = 1.91451384961e-05, No Iterations 99
DICPCG:  Solving for p, Initial residual = 1.93302814633e-05, Final residual = 1.69301317754e-07, No Iterations 5
DICPCG:  Solving for p, Initial residual = 1.6930168674e-07, Final residual = 3.80552841841e-09, No Iterations 11
time step continuity errors : sum local = 4.33168548917e-10, global = 2.71498405123e-11, cumulative = 4.24857545794e-10
ExecutionTime = 0.32 s  ClockTime = 0 s

Time = 25

DILUPBiCGStab:  Solving for Ux, Initial residual = 0.00581741415824, Final residual = 1.80770145339e-09, No Iterations 3
DILUPBiCGStab:  Solving for Uy, Initial residual = 0.0101334390942, Final residual = 3.20660356354e-09, No Iterations 3
DILUPBiCGStab:  Solving for Uz, Initial residual = 0.0258553889925, Final residual = 1.54308741713e-09, No Iterations 3
DICPCG:  Solving for p, Initial residual = 0.00366330584734, Final residual = 3.58854516967e-05, No Iterations 96
DICPCG:  Solving for p, Initial residual = 3.62003471916e-05, Final residual = 3.17788729768e-07, No Iterations 11
DICPCG:  Solving for p, Initial residual = 3.17790447659e-07, Final residual = 6.64933756095e-09, No Iterations 97
time step continuity errors : sum local = 7.51514399246e-10, global = 1.0153089458e-11, cumulative = 4.35010635252e-10
ExecutionTime = 0.34 s  ClockTime = 0 s

Time = 26

DILUPBiCGStab:  Solving for Ux, Initial residual = 0.00551356884118, Final residual = 1.67669008693e-09, No Iterations 3
DILUPBiCGStab:  Solving for Uy, Initial residual = 0.00947606258923, Final residual = 2.78338857153e-09, No Iterations 3
DILUPBiCGStab:  Solving for Uz, Initial residual = 0.0252546738843, Final residual = 1.47934554556e-09, No Iterations 3
DICPCG:  Solving for p, Initial residual = 0.00324921113868, Final residual = 1.02669101946e-05, No Iterations 100
DICPCG:  Solving for p, Initial residual = 1.03484700246e-05, Final residual = 9.57288216649e-08, No Iterations 5
DICPCG:  Solving for p, Initial residual = 9.57289724289e-08, Final residual = 9.14285953188e-09, No Iterations 5
time step continuity errors : sum local = 1.02661899114e-09, global = -3.18274631489e-11, cumulative = 4.03183172103e-10
ExecutionTime = 0.35 s  ClockTime = 0 s

Time = 27

DILUPBiCGStab:  Solving for Ux, Initial residual = 0.00523835572537, Final residual = 1.55866753692e-09, No Iterations 3
DILUPBiCGStab:  Solving for Uy, Initial residual = 0.00885851868119, Final residual = 2.40778216539e-09, No Iterations 3
DILUPBiCGStab:  Solving for Uz, Initial residual = 0.0249096314432, Final residual = 1.39060458883e-09, No Iterations 3
DICPCG:  Solving for p, Initial residual = 0.00288040143406, Final residual = 9.32104888722e-06, No Iterations 100
DICPCG:  Solving for p, Initial residual = 9.38781467371e-06, Final residual = 7.03476782215e-08, No Iterations 4
DICPCG:  Solving for p, Initial residual = 7.03478872489e-08, Final residual = 4.45626119845e-09, No Iterations 9
time step continuity errors : sum local = 4.97453669575e-10, global = 1.5631096973e-11, cumulative = 4.18814269076e-10
ExecutionTime = 0.36 s  ClockTime = 0 s

Time = 28

DILUPBiCGStab:  Solving for Ux, Initial residual = 0.00498269569798, Final residual = 1.45030118745e-09, No Iterations 3
DILUPBiCGStab:  Solving for Uy, Initial residual = 0.00828154835729, Final residual = 2.06462768942e-09, No Iterations 3
DILUPBiCGStab:  Solving for Uz, Initial residual = 0.0245404573937, Final residual = 1.347012598e-09, No Iterations 3
DICPCG:  Solving for p, Initial residual = 0.00256278159199, Final residual = 2.1843698961e-05, No Iterations 99
DICPCG:  Solving for p, Initial residual = 2.19838615682e-05, Final residual = 2.08519365253e-07, No Iterations 9
DICPCG:  Solving for p, Initial residual = 2.08519615675e-07, Final residual = 8.57945536212e-09, No Iterations 11
time step continuity errors : sum local = 9.52744062758e-10, global = 5.94382191342e-11, cumulative = 4.7825248821e-10
ExecutionTime = 0.37 s  ClockTime = 0 s

Time = 29

DILUPBiCGStab:  Solving for Ux, Initial residual = 0.0047438933684, Final residual = 1.3513193763e-09, No Iterations 3
DILUPBiCGStab:  Solving for Uy, Initial residual = 0.00776570674584, Final residual = 1.75137068768e-09, No Iterations 3
DILUPBiCGStab:  Solving for Uz, Initial residual = 0.0241896148582, Final residual = 1.27299279632e-09, No Iterations 3
DICPCG:  Solving for p, Initial residual = 0.00228311371751, Final residual = 1.75914763505e-05, No Iterations 97
DICPCG:  Solving for p, Initial residual = 1.76916120676e-05, Final residual = 1.38982258196e-07, No Iterations 8
DICPCG:  Solving for p, Initial residual = 1.38982452721e-07, Final residual = 4.73492798454e-09, No Iterations 97
time step continuity errors : sum local = 5.23377294322e-10, global = -2.56226576173e-12, cumulative = 4.75690222449e-10
ExecutionTime = 0.39 s  ClockTime = 0 s

Time = 30

DILUPBiCGStab:  Solving for Ux, Initial residual = 0.00452003543068, Final residual = 1.25969007957e-09, No Iterations 3
DILUPBiCGStab:  Solving for Uy, Initial residual = 0.00731118764193, Final residual = 1.48139932276e-09, No Iterations 3
DILUPBiCGStab:  Solving for Uz, Initial residual = 0.0238972535842, Final residual = 1.20504540216e-09, No Iterations 3
DICPCG:  Solving for p, Initial residual = 0.00203340469142, Final residual = 1.77142761014e-05, No Iterations 99
DICPCG:  Solving for p, Initial residual = 1.78028637571e-05, Final residual = 1.71557814906e-07, No Iterations 6
DICPCG:  Solving for p, Initial residual = 1.71557928534e-07, Final residual = 8.52923564406e-09, No Iterations 13
time step continuity errors : sum local = 9.38938706433e-10, global = 1.14078624301e-10, cumulative = 5.89768846749e-10
ExecutionTime = 0.4 s  ClockTime = 0 s

Time = 31

DILUPBiCGStab:  Solving for Ux, Initial residual = 0.00430970148045, Final residual = 1.1753029969e-09, No Iterations 3
DILUPBiCGStab:  Solving for Uy, Initial residual = 0.00691465885813, Final residual = 1.25668525096e-09, No Iterations 3
DILUPBiCGStab:  Solving for Uz, Initial residual = 0.0235936162021, Final residual = 1.10487795812e-09, No Iterations 3
DICPCG:  Solving for p, Initial residual = 0.00181112648074, Final residual = 9.56550486245e-06, No Iterations 99
DICPCG:  Solving for p, Initial residual = 9.60715939618e-06, Final residual = 7.7802814582e-08, No Iterations 6
DICPCG:  Solving for p, Initial residual = 7.78028886468e-08, Final residual = 5.98896001041e-09, No Iterations 9
time step continuity errors : sum local = 6.56973491796e-10, global = -3.57394109848e-11, cumulative = 5.54029435765e-10
ExecutionTime = 0.41 s  ClockTime = 0 s

Time = 32

DILUPBiCGStab:  Solving for Ux, Initial residual = 0.00411161740963, Final residual = 1.09746879069e-09, No Iterations 3
DILUPBiCGStab:  Solving for Uy, Initial residual = 0.00655769290377, Final residual = 1.09009023166e-09, No Iterations 3
DILUPBiCGStab:  Solving for Uz, Initial residual = 0.023296222833, Final residual = 1.12142882325e-09, No Iterations 3
DICPCG:  Solving for p, Initial residual = 0.00161101022097, Final residual = 7.36977130211e-06, No Iterations 99
DICPCG:  Solving for p, Initial residual = 7.39752724112e-06, Final residual = 4.38022762549e-08, No Iterations 6
DICPCG:  Solving for p, Initial residual = 4.38022321339e-08, Final residual = 8.64265875872e-09, No Iterations 9
time step continuity errors : sum local = 9.45171844003e-10, global = -1.41106596379e-11, cumulative = 5.39918776127e-10
ExecutionTime = 0.42 s  ClockTime = 0 s

Time = 33

DILUPBiCGStab:  Solving for Ux, Initial residual = 0.00392477700934, Final residual = 1.02528046341e-09, No Iterations 3
DILUPBiCGStab:  Solving for Uy, Initial residual = 0.00623845813162, Final residual = 9.68166722856e-10, No Iterations 3
DILUPBiCGStab:  Solving for Uz, Initial residual = 0.0230996419043, Final residual = 1.18987735191e-09, No Iterations 3
DICPCG:  Solving for p, Initial residual = 0.00143756975497, Final residual = 8.4910409392e-06, No Iterations 99
DICPCG:  Solving for p, Initial residual = 8.51820460356e-06, Final residual = 4.30833901686e-08, No Iterations 6
DICPCG:  Solving for p, Initial residual = 4.30834464177e-08, Final residual = 7.38815750716e-09, No Iterations 5
time step continuity errors : sum local = 8.05866189235e-10, global = 1.11823025192e-10, cumulative = 6.51741801319e-10
ExecutionTime = 0.43 s  ClockTime = 0 s

Time = 34

DILUPBiCGStab:  Solving for Ux, Initial residual = 0.00374828862322, Final residual = 9.5830570648e-10, No Iterations 3
DILUPBiCGStab:  Solving for Uy, Initial residual = 0.0059506017984, Final residual = 8.64204567719e-10, No Iterations 3
DILUPBiCGStab:  Solving for Uz, Initial residual = 0.0229999873547, Final residual = 1.12456004345e-09, No Iterations 3
DICPCG:  Solving for p, Initial residual = 0.00128408513218, Final residual = 7.02247194771e-06, No Iterations 99
DICPCG:  Solving for p, Initial residual = 7.04125839104e-06, Final residual = 3.63159088097e-08, No Iterations 6
DICPCG:  Solving for p, Initial residual = 3.63158172352e-08, Final residual = 6.3364219422e-09, No Iterations 9
time step continuity errors : sum local = 6.89622664129e-10, global = -3.63543075922e-11, cumulative = 6.15387493727e-10
ExecutionTime = 0.45 s  ClockTime = 0 s

Time = 35

DILUPBiCGStab:  Solving for Ux, Initial residual = 0.00358284634943, Final residual = 8.96681435916e-10, No Iterations 3
DILUPBiCGStab:  Solving for Uy, Initial residual = 0.00569642205839, Final residual = 7.68249586133e-10, No Iterations 3
DILUPBiCGStab:  Solving for Uz, Initial residual = 0.0226942625859, Final residual = 1.03281363227e-09, No Iterations 3
DICPCG:  Solving for p, Initial residual = 0.00114864651234, Final residual = 6.12053206683e-06, No Iterations 99
DICPCG:  Solving for p, Initial residual = 6.13390274344e-06, Final residual = 2.7733863112e-08, No Iterations 6
DICPCG:  Solving for p, Initial residual = 2.77338982665e-08, Final residual = 8.11771156368e-09, No Iterations 3
time step continuity errors : sum local = 8.81863501773e-10, global = 1.0476801029e-10, cumulative = 7.20155504017e-10
ExecutionTime = 0.46 s  ClockTime = 0 s

Time = 36

DILUPBiCGStab:  Solving for Ux, Initial residual = 0.00342639440711, Final residual = 8.39637648299e-10, No Iterations 3
DILUPBiCGStab:  Solving for Uy, Initial residual = 0.00547651123105, Final residual = 6.81472988049e-10, No Iterations 3
DILUPBiCGStab:  Solving for Uz, Initial residual = 0.0224847963365, Final residual = 9.98761868989e-10, No Iterations 3
DICPCG:  Solving for p, Initial residual = 0.00102799531158, Final residual = 5.01850707854e-06, No Iterations 99
DICPCG:  Solving for p, Initial residual = 5.02716253495e-06, Final residual = 3.01204087074e-08, No Iterations 6
DICPCG:  Solving for p, Initial residual = 3.01204342594e-08, Final residual = 4.65034457184e-09, No Iterations 3
time step continuity errors : sum local = 5.04467475976e-10, global = 8.02107103539e-11, cumulative = 8.00366214371e-10
ExecutionTime = 0.47 s  ClockTime = 0 s

Time = 37

DILUPBiCGStab:  Solving for Ux, Initial residual = 0.00327737139186, Final residual = 7.87340187172e-10, No Iterations 3
DILUPBiCGStab:  Solving for Uy, Initial residual = 0.00528395549629, Final residual = 6.12130822437e-10, No Iterations 3
DILUPBiCGStab:  Solving for Uz, Initial residual = 0.0222775952622, Final residual = 9.88862666469e-10, No Iterations 3
DICPCG:  Solving for p, Initial residual = 0.000922738781951, Final residual = 4.01782342875e-06, No Iterations 99
DICPCG:  Solving for p, Initial residual = 4.02305015475e-06, Final residual = 3.77761967773e-08, No Iterations 5
DICPCG:  Solving for p, Initial residual = 3.77762406978e-08, Final residual = 5.00251877645e-09, No Iterations 5
time step continuity errors : sum local = 5.42014489708e-10, global = 8.39572632645e-11, cumulative = 8.84323477635e-10
ExecutionTime = 0.48 s  ClockTime = 0 s

Time = 38

DILUPBiCGStab:  Solving for Ux, Initial residual = 0.00313563011757, Final residual = 7.38670014338e-10, No Iterations 3
DILUPBiCGStab:  Solving for Uy, Initial residual = 0.00510484257894, Final residual = 5.82927047879e-10, No Iterations 3
DILUPBiCGStab:  Solving for Uz, Initial residual = 0.0219157691609, Final residual = 1.05153442265e-09, No Iterations 3
DICPCG:  Solving for p, Initial residual = 0.000831366605605, Final residual = 5.27543488543e-06, No Iterations 73
DICPCG:  Solving for p, Initial residual = 5.27959816074e-06, Final residual = 3.65132895527e-08, No Iterations 91
DICPCG:  Solving for p, Initial residual = 3.65176941404e-08, Final residual = 7.10830437103e-09, No Iterations 10
time step continuity errors : sum local = 7.69550185657e-10, global = 5.98587136626e-11, cumulative = 9.44182191298e-10
ExecutionTime = 0.49 s  ClockTime = 0 s

Time = 39

DILUPBiCGStab:  Solving for Ux, Initial residual = 0.00300069912893, Final residual = 6.93429473369e-10, No Iterations 3
DILUPBiCGStab:  Solving for Uy, Initial residual = 0.00494139103822, Final residual = 6.31355908672e-10, No Iterations 3
DILUPBiCGStab:  Solving for Uz, Initial residual = 0.021585196294, Final residual = 1.01993000615e-09, No Iterations 3
DICPCG:  Solving for p, Initial residual = 0.000747605109686, Final residual = 6.61648362516e-06, No Iterations 79
DICPCG:  Solving for p, Initial residual = 6.62097539224e-06, Final residual = 5.29915602202e-08, No Iterations 99
DICPCG:  Solving for p, Initial residual = 5.29821017345e-08, Final residual = 1.12064213992e-09, No Iterations 3
time step continuity errors : sum local = 1.21249059122e-10, global = -1.65033459026e-12, cumulative = 9.42531856708e-10
ExecutionTime = 0.5 s  ClockTime = 0 s

Time = 40

DILUPBiCGStab:  Solving for Ux, Initial residual = 0.00287212986889, Final residual = 6.51567223792e-10, No Iterations 3
DILUPBiCGStab:  Solving for Uy, Initial residual = 0.00478282124811, Final residual = 8.47127501422e-10, No Iterations 3
DILUPBiCGStab:  Solving for Uz, Initial residual = 0.02119260756, Final residual = 1.05550121199e-09, No Iterations 3
DICPCG:  Solving for p, Initial residual = 0.000673229776702, Final residual = 3.29343470357e-06, No Iterations 99
DICPCG:  Solving for p, Initial residual = 3.29390254166e-06, Final residual = 2.07331248078e-08, No Iterations 7
DICPCG:  Solving for p, Initial residual = 2.07329846088e-08, Final residual = 5.56862644208e-09, No Iterations 3
time step continuity errors : sum local = 6.023463904e-10, global = 8.5026176342e-12, cumulative = 9.51034474342e-10
ExecutionTime = 0.52 s  ClockTime = 0 s

Time = 41

DILUPBiCGStab:  Solving for Ux, Initial residual = 0.00274956407198, Final residual = 6.12861674286e-10, No Iterations 3
DILUPBiCGStab:  Solving for Uy, Initial residual = 0.00463025844357, Final residual = 2.90895028166e-09, No Iterations 3
DILUPBiCGStab:  Solving for Uz, Initial residual = 0.0208084609172, Final residual = 8.9372111991e-10, No Iterations 3
DICPCG:  Solving for p, Initial residual = 0.000610126266379, Final residual = 4.02200687053e-06, No Iterations 98
DICPCG:  Solving for p, Initial residual = 4.0212406212e-06, Final residual = 2.06214404426e-08, No Iterations 9
DICPCG:  Solving for p, Initial residual = 2.06214431875e-08, Final residual = 3.79233184395e-09, No Iterations 3
time step continuity errors : sum local = 4.10215652575e-10, global = -2.46878022114e-11, cumulative = 9.2634667213e-10
ExecutionTime = 0.53 s  ClockTime = 0 s

Time = 42

DILUPBiCGStab:  Solving for Ux, Initial residual = 0.00263270871746, Final residual = 5.77820393101e-10, No Iterations 3
DILUPBiCGStab:  Solving for Uy, Initial residual = 0.00448435968929, Final residual = 5.92361530207e-10, No Iterations 3
DILUPBiCGStab:  Solving for Uz, Initial residual = 0.020404272095, Final residual = 9.05113298528e-10, No Iterations 3
DICPCG:  Solving for p, Initial residual = 0.000556017523361, Final residual = 2.60034697781e-06, No Iterations 99
DICPCG:  Solving for p, Initial residual = 2.59904477041e-06, Final residual = 1.67855448378e-08, No Iterations 7
DICPCG:  Solving for p, Initial residual = 1.67856181064e-08, Final residual = 6.13449429558e-09, No Iterations 3
time step continuity errors : sum local = 6.63727053735e-10, global = 7.35219722579e-12, cumulative = 9.33698869356e-10
ExecutionTime = 0.54 s  ClockTime = 0 s

Time = 43

DILUPBiCGStab:  Solving for Ux, Initial residual = 0.00252128828715, Final residual = 5.48706049279e-10, No Iterations 3
DILUPBiCGStab:  Solving for Uy, Initial residual = 0.00434717743619, Final residual = 2.92208883725e-10, No Iterations 3
DILUPBiCGStab:  Solving for Uz, Initial residual = 0.0198736968049, Final residual = 8.15898913857e-10, No Iterations 3
DICPCG:  Solving for p, Initial residual = 0.000509413949734, Final residual = 4.63984611407e-06, No Iterations 96
DICPCG:  Solving for p, Initial residual = 4.63620420328e-06, Final residual = 1.83606093983e-08, No Iterations 11
DICPCG:  Solving for p, Initial residual = 1.83607704054e-08, Final residual = 7.57883516015e-09, No Iterations 3
time step continuity errors : sum local = 8.20318186988e-10, global = -9.98345631704e-11, cumulative = 8.33864306186e-10
ExecutionTime = 0.55 s  ClockTime = 0 s

Time = 44

DILUPBiCGStab:  Solving for Ux, Initial residual = 0.00241499602406, Final residual = 5.21980109324e-10, No Iterations 3
DILUPBiCGStab:  Solving for Uy, Initial residual = 0.00421763246524, Final residual = 2.65096435469e-10, No Iterations 3
DILUPBiCGStab:  Solving for Uz, Initial residual = 0.0193644678185, Final residual = 8.63036752873e-10, No Iterations 3
DICPCG:  Solving for p, Initial residual = 0.000467660595558, Final residual = 2.00732261956e-06, No Iterations 99
DICPCG:  Solving for p, Initial residual = 2.0052244799e-06, Final residual = 1.52052018872e-08, No Iterations 6
DICPCG:  Solving for p, Initial residual = 1.52050796539e-08, Final residual = 6.89132957886e-09, No Iterations 3
time step continuity errors : sum local = 7.46356826093e-10, global = 5.38510144856e-13, cumulative = 8.34402816331e-10
ExecutionTime = 0.56 s  ClockTime = 0 s

Time = 45

DILUPBiCGStab:  Solving for Ux, Initial residual = 0.00231347262002, Final residual = 4.98554469329e-10, No Iterations 3
DILUPBiCGStab:  Solving for Uy, Initial residual = 0.00409314739338, Final residual = 2.30149257968e-10, No Iterations 3
DILUPBiCGStab:  Solving for Uz, Initial residual = 0.0187342128441, Final residual = 8.46084936707e-10, No Iterations 3
DICPCG:  Solving for p, Initial residual = 0.000429739424917, Final residual = 1.22081007307e-06, No Iterations 98
DICPCG:  Solving for p, Initial residual = 1.21923406363e-06, Final residual = 8.86045710855e-09, No Iterations 6
DICPCG:  Solving for p, Initial residual = 8.86033401971e-09, Final residual = 2.37813012302e-09, No Iterations 3
time step continuity errors : sum local = 2.57742601344e-10, global = -4.24525885274e-12, cumulative = 8.30157557478e-10
ExecutionTime = 0.57 s  ClockTime = 0 s

Time = 46

DILUPBiCGStab:  Solving for Ux, Initial residual = 0.00221636898231, Final residual = 4.78210297699e-10, No Iterations 3
DILUPBiCGStab:  Solving for Uy, Initial residual = 0.00397356728398, Final residual = 2.03151322835e-10, No Iterations 3
DILUPBiCGStab:  Solving for Uz, Initial residual = 0.0181033354756, Final residual = 8.34336356285e-10, No Iterations 3
DICPCG:  Solving for p, Initial residual = 0.000396158581231, Final residual = 2.6428671253e-06, No Iterations 98
DICPCG:  Solving for p, Initial residual = 2.63886078698e-06, Final residual = 2.19698186092e-08, No Iterations 9
DICPCG:  Solving for p, Initial residual = 2.19695882354e-08, Final residual = 5.75034616395e-09, No Iterations 3
time step continuity errors : sum local = 6.23856485763e-10, global = 3.95622554526e-11, cumulative = 8.69719812931e-10
ExecutionTime = 0.58 s  ClockTime = 0 s

Time = 47

DILUPBiCGStab:  Solving for Ux, Initial residual = 0.00212340258239, Final residual = 4.58557848692e-10, No Iterations 3
DILUPBiCGStab:  Solving for Uy, Initial residual = 0.00385879940781, Final residual = 1.81021267398e-10, No Iterations 3
DILUPBiCGStab:  Solving for Uz, Initial residual = 0.0174742270917, Final residual = 9.08778101054e-10, No Iterations 3
DICPCG:  Solving for p, Initial residual = 0.00036622812866, Final residual = 2.71304272109e-06, No Iterations 98
DICPCG:  Solving for p, Initial residual = 2.70835942147e-06, Final residual = 2.43024516716e-08, No Iterations 10
DICPCG:  Solving for p, Initial residual = 2.43024490017e-08, Final residual = 5.1797809371e-09, No Iterations 3
time step continuity errors : sum local = 5.62565517092e-10, global = 3.20108971907e-11, cumulative = 9.01730710121e-10
ExecutionTime = 0.59 s  ClockTime = 0 s

Time = 48

DILUPBiCGStab:  Solving for Ux, Initial residual = 0.00203437114741, Final residual = 4.39546636868e-10, No Iterations 3
DILUPBiCGStab:  Solving for Uy, Initial residual = 0.00374915878927, Final residual = 1.62926949634e-10, No Iterations 3
DILUPBiCGStab:  Solving for Uz, Initial residual = 0.0167562603084, Final residual = 8.8231482631e-10, No Iterations 3
DICPCG:  Solving for p, Initial residual = 0.000339332807465, Final residual = 2.52136953371e-06, No Iterations 96
DICPCG:  Solving for p, Initial residual = 2.51651514561e-06, Final residual = 1.37488559956e-08, No Iterations 8
DICPCG:  Solving for p, Initial residual = 1.37490398801e-08, Final residual = 5.44897677924e-09, No Iterations 3
time step continuity errors : sum local = 5.92566601624e-10, global = -1.82547658675e-11, cumulative = 8.83475944254e-10
ExecutionTime = 0.6 s  ClockTime = 0 s

Time = 49

DILUPBiCGStab:  Solving for Ux, Initial residual = 0.00194906324785, Final residual = 4.21345704442e-10, No Iterations 3
DILUPBiCGStab:  Solving for Uy, Initial residual = 0.00364408916679, Final residual = 1.47590650392e-10, No Iterations 3
DILUPBiCGStab:  Solving for Uz, Initial residual = 0.0160718748705, Final residual = 8.94246372832e-10, No Iterations 3
DICPCG:  Solving for p, Initial residual = 0.000315049920796, Final residual = 1.22610810259e-06, No Iterations 97
DICPCG:  Solving for p, Initial residual = 1.22351927402e-06, Final residual = 6.07258515256e-09, No Iterations 6
DICPCG:  Solving for p, Initial residual = 6.07253326612e-09, Final residual = 1.22051932768e-09, No Iterations 3
time step continuity errors : sum local = 1.32906934095e-10, global = -7.46344592819e-12, cumulative = 8.76012498326e-10
ExecutionTime = 0.62 s  ClockTime = 0 s

Time = 50

DILUPBiCGStab:  Solving for Ux, Initial residual = 0.00186733360651, Final residual = 4.04274208298e-10, No Iterations 3
DILUPBiCGStab:  Solving for Uy, Initial residual = 0.00354414887807, Final residual = 1.35099210446e-10, No Iterations 3
DILUPBiCGStab:  Solving for Uz, Initial residual = 0.0153510676833, Final residual = 8.36822099489e-10, No Iterations 3
DICPCG:  Solving for p, Initial residual = 0.00029421289421, Final residual = 2.2011509253e-06, No Iterations 97
DICPCG:  Solving for p, Initial residual = 2.19612279944e-06, Final residual = 1.612511661e-08, No Iterations 9
DICPCG:  Solving for p, Initial residual = 1.61251182718e-08, Final residual = 7.89003913069e-09, No Iterations 5
time step continuity errors : sum local = 8.6044308596e-10, global = 2.24904865712e-11, cumulative = 8.98502984897e-10
ExecutionTime = 0.63 s  ClockTime = 0 s

Time = 51

DILUPBiCGStab:  Solving for Ux, Initial residual = 0.00178895640802, Final residual = 3.8790718287e-10, No Iterations 3
DILUPBiCGStab:  Solving for Uy, Initial residual = 0.00344944825878, Final residual = 1.24085341905e-10, No Iterations 3
DILUPBiCGStab:  Solving for Uz, Initial residual = 0.0147004734896, Final residual = 8.21886090285e-10, No Iterations 3
DICPCG:  Solving for p, Initial residual = 0.000276006248797, Final residual = 2.35078228798e-06, No Iterations 96
DICPCG:  Solving for p, Initial residual = 2.34504027061e-06, Final residual = 1.34912935396e-08, No Iterations 8
DICPCG:  Solving for p, Initial residual = 1.34913677132e-08, Final residual = 6.44950451515e-09, No Iterations 3
time step continuity errors : sum local = 7.04486414103e-10, global = 1.69344811981e-12, cumulative = 9.00196433017e-10
ExecutionTime = 0.64 s  ClockTime = 0 s

Time = 52

DILUPBiCGStab:  Solving for Ux, Initial residual = 0.00171371833864, Final residual = 3.72153737988e-10, No Iterations 3
DILUPBiCGStab:  Solving for Uy, Initial residual = 0.00336091679564, Final residual = 1.14335931649e-10, No Iterations 3
DILUPBiCGStab:  Solving for Uz, Initial residual = 0.0139602644614, Final residual = 7.57483588068e-10, No Iterations 3
DICPCG:  Solving for p, Initial residual = 0.000259560267246, Final residual = 8.67658570139e-07, No Iterations 96
DICPCG:  Solving for p, Initial residual = 8.65410602022e-07, Final residual = 8.34160515205e-09, No Iterations 14
DICPCG:  Solving for p, Initial residual = 8.34149116047e-09, Final residual = 1.39537721719e-09, No Iterations 3
time step continuity errors : sum local = 1.52668113131e-10, global = 4.25075893375e-12, cumulative = 9.0444719195e-10
ExecutionTime = 0.65 s  ClockTime = 0 s

Time = 53

DILUPBiCGStab:  Solving for Ux, Initial residual = 0.00164148871338, Final residual = 3.58307822025e-10, No Iterations 3
DILUPBiCGStab:  Solving for Uy, Initial residual = 0.00327681268298, Final residual = 1.05424775568e-10, No Iterations 3
DILUPBiCGStab:  Solving for Uz, Initial residual = 0.0134007789322, Final residual = 7.68609794783e-10, No Iterations 3
DICPCG:  Solving for p, Initial residual = 0.000244447462072, Final residual = 2.36501832491e-06, No Iterations 96
DICPCG:  Solving for p, Initial residual = 2.35856883542e-06, Final residual = 1.79614225706e-08, No Iterations 8
DICPCG:  Solving for p, Initial residual = 1.79614427554e-08, Final residual = 5.88203062581e-09, No Iterations 3
time step continuity errors : sum local = 6.44765425551e-10, global = -4.49995397184e-11, cumulative = 8.59447652232e-10
ExecutionTime = 0.66 s  ClockTime = 0 s

Time = 54

DILUPBiCGStab:  Solving for Ux, Initial residual = 0.00157224349484, Final residual = 3.45102724794e-10, No Iterations 3
DILUPBiCGStab:  Solving for Uy, Initial residual = 0.00319695805409, Final residual = 9.72042129274e-11, No Iterations 3
DILUPBiCGStab:  Solving for Uz, Initial residual = 0.0127045899872, Final residual = 7.59129551878e-10, No Iterations 3
DICPCG:  Solving for p, Initial residual = 0.000230532717972, Final residual = 2.1347514114e-06, No Iterations 96
DICPCG:  Solving for p, Initial residual = 2.1286599633e-06, Final residual = 1.40905891784e-08, No Iterations 10
DICPCG:  Solving for p, Initial residual = 1.40906332638e-08, Final residual = 4.47001355215e-09, No Iterations 3
time step continuity errors : sum local = 4.90948529758e-10, global = -5.17745845801e-12, cumulative = 8.54270193774e-10
ExecutionTime = 0.67 s  ClockTime = 0 s

Time = 55

DILUPBiCGStab:  Solving for Ux, Initial residual = 0.00150588412402, Final residual = 3.32218700151e-10, No Iterations 3
DILUPBiCGStab:  Solving for Uy, Initial residual = 0.00312130672129, Final residual = 8.99910681979e-11, No Iterations 3
DILUPBiCGStab:  Solving for Uz, Initial residual = 0.0120499168242, Final residual = 7.12907315549e-10, No Iterations 3
DICPCG:  Solving for p, Initial residual = 0.000218239004753, Final residual = 1.84291330523e-06, No Iterations 97
DICPCG:  Solving for p, Initial residual = 1.83743418334e-06, Final residual = 1.54091002363e-08, No Iterations 10
DICPCG:  Solving for p, Initial residual = 1.54091360036e-08, Final residual = 3.44641641279e-09, No Iterations 3
time step continuity errors : sum local = 3.79245990299e-10, global = -7.77971952318e-12, cumulative = 8.46490474251e-10
ExecutionTime = 0.68 s  ClockTime = 0 s

Time = 56

DILUPBiCGStab:  Solving for Ux, Initial residual = 0.00144229504062, Final residual = 3.19664677552e-10, No Iterations 3
DILUPBiCGStab:  Solving for Uy, Initial residual = 0.00305017613089, Final residual = 8.35502502476e-11, No Iterations 3
DILUPBiCGStab:  Solving for Uz, Initial residual = 0.0115734221001, Final residual = 7.31071959455e-10, No Iterations 3
DICPCG:  Solving for p, Initial residual = 0.000206919777782, Final residual = 1.29782876386e-06, No Iterations 96
DICPCG:  Solving for p, Initial residual = 1.29382773894e-06, Final residual = 8.17702571486e-09, No Iterations 8
DICPCG:  Solving for p, Initial residual = 8.17690974092e-09, Final residual = 3.40319748691e-09, No Iterations 3
time step continuity errors : sum local = 3.75309259791e-10, global = 1.13596101688e-12, cumulative = 8.47626435268e-10
ExecutionTime = 0.69 s  ClockTime = 0 s

Time = 57

DILUPBiCGStab:  Solving for Ux, Initial residual = 0.00138128944707, Final residual = 3.07421466833e-10, No Iterations 3
DILUPBiCGStab:  Solving for Uy, Initial residual = 0.00298277162663, Final residual = 7.78700856987e-11, No Iterations 3
DILUPBiCGStab:  Solving for Uz, Initial residual = 0.0109532866396, Final residual = 6.91552776169e-10, No Iterations 3
DICPCG:  Solving for p, Initial residual = 0.000196765784921, Final residual = 1.67082370968e-06, No Iterations 97
DICPCG:  Solving for p, Initial residual = 1.66550379647e-06, Final residual = 1.27092696821e-08, No Iterations 11
DICPCG:  Solving for p, Initial residual = 1.27093098232e-08, Final residual = 6.145517128e-09, No Iterations 3
time step continuity errors : sum local = 6.79182039676e-10, global = -2.53197326658e-11, cumulative = 8.22306702602e-10
ExecutionTime = 0.7 s  ClockTime = 1 s

Time = 58

DILUPBiCGStab:  Solving for Ux, Initial residual = 0.00132269379903, Final residual = 2.95477716786e-10, No Iterations 3
DILUPBiCGStab:  Solving for Uy, Initial residual = 0.0029183283066, Final residual = 7.28751938328e-11, No Iterations 3
DILUPBiCGStab:  Solving for Uz, Initial residual = 0.0104674610047, Final residual = 7.12944615158e-10, No Iterations 3
DICPCG:  Solving for p, Initial residual = 0.000187109479241, Final residual = 1.21362916964e-06, No Iterations 98
DICPCG:  Solving for p, Initial residual = 1.20965140243e-06, Final residual = 1.10678235707e-08, No Iterations 8
DICPCG:  Solving for p, Initial residual = 1.10677335819e-08, Final residual = 3.31686122914e-09, No Iterations 3
time step continuity errors : sum local = 3.67394926519e-10, global = 7.71297310185e-12, cumulative = 8.30019675704e-10
ExecutionTime = 0.71 s  ClockTime = 1 s

Time = 59

DILUPBiCGStab:  Solving for Ux, Initial residual = 0.0012663620523, Final residual = 2.83850072322e-10, No Iterations 3
DILUPBiCGStab:  Solving for Uy, Initial residual = 0.00285672476732, Final residual = 6.83805669819e-11, No Iterations 3
DILUPBiCGStab:  Solving for Uz, Initial residual = 0.00994434276986, Final residual = 7.01872949781e-10, No Iterations 3
DICPCG:  Solving for p, Initial residual = 0.000178185879484, Final residual = 1.14190411147e-06, No Iterations 98
DICPCG:  Solving for p, Initial residual = 1.13806319325e-06, Final residual = 1.09147176992e-08, No Iterations 7
DICPCG:  Solving for p, Initial residual = 1.09146925145e-08, Final residual = 2.88011571831e-09, No Iterations 3
time step continuity errors : sum local = 3.19764595615e-10, global = -9.05194408663e-12, cumulative = 8.20967731617e-10
ExecutionTime = 0.72 s  ClockTime = 1 s

Time = 60

DILUPBiCGStab:  Solving for Ux, Initial residual = 0.00121216220271, Final residual = 2.72524596942e-10, No Iterations 3
DILUPBiCGStab:  Solving for Uy, Initial residual = 0.00279741755876, Final residual = 6.42726098972e-11, No Iterations 3
DILUPBiCGStab:  Solving for Uz, Initial residual = 0.00948577872401, Final residual = 6.54300251054e-10, No Iterations 3
DICPCG:  Solving for p, Initial residual = 0.000169921280064, Final residual = 1.12476716449e-06, No Iterations 97
DICPCG:  Solving for p, Initial residual = 1.12089553002e-06, Final residual = 8.20455678753e-09, No Iterations 6
DICPCG:  Solving for p, Initial residual = 8.20450662273e-09, Final residual = 4.33077717881e-09, No Iterations 3
time step continuity errors : sum local = 4.81901651505e-10, global = -2.76750065438e-11, cumulative = 7.93292725073e-10
ExecutionTime = 0.73 s  ClockTime = 1 s

Time = 61

DILUPBiCGStab:  Solving for Ux, Initial residual = 0.00115998331721, Final residual = 2.61498796259e-10, No Iterations 3
DILUPBiCGStab:  Solving for Uy, Initial residual = 0.00273991553048, Final residual = 6.04746064047e-11, No Iterations 3
DILUPBiCGStab:  Solving for Uz, Initial residual = 0.00902064723406, Final residual = 6.75618182413e-10, No Iterations 3
DICPCG:  Solving for p, Initial residual = 0.000162379716441, Final residual = 9.93993909448e-07, No Iterations 98
DICPCG:  Solving for p, Initial residual = 9.90501354717e-07, Final residual = 9.71249405018e-09, No Iterations 10
DICPCG:  Solving for p, Initial residual = 9.71246651747e-09, Final residual = 1.87516347359e-09, No Iterations 3
time step continuity errors : sum local = 2.09140941377e-10, global = -2.70925197515e-12, cumulative = 7.90583473098e-10
ExecutionTime = 0.74 s  ClockTime = 1 s

Time = 62

DILUPBiCGStab:  Solving for Ux, Initial residual = 0.00110972891799, Final residual = 2.50780699227e-10, No Iterations 3
DILUPBiCGStab:  Solving for Uy, Initial residual = 0.00268406540067, Final residual = 5.69913270025e-11, No Iterations 3
DILUPBiCGStab:  Solving for Uz, Initial residual = 0.00866554822262, Final residual = 6.00373001942e-10, No Iterations 3
DICPCG:  Solving for p, Initial residual = 0.000155338395192, Final residual = 5.5500479325e-07, No Iterations 98
DICPCG:  Solving for p, Initial residual = 5.53019620263e-07, Final residual = 7.33077410313e-09, No Iterations 4
DICPCG:  Solving for p, Initial residual = 7.33092525089e-09, Final residual = 1.92634986693e-09, No Iterations 3
time step continuity errors : sum local = 2.15415452862e-10, global = 2.3038518115e-12, cumulative = 7.9288732491e-10
ExecutionTime = 0.75 s  ClockTime = 1 s

Time = 63

DILUPBiCGStab:  Solving for Ux, Initial residual = 0.00106131075605, Final residual = 2.40369407972e-10, No Iterations 3
DILUPBiCGStab:  Solving for Uy, Initial residual = 0.00262961637168, Final residual = 5.38152477874e-11, No Iterations 3
DILUPBiCGStab:  Solving for Uz, Initial residual = 0.00827110686385, Final residual = 5.89597264715e-10, No Iterations 3
DICPCG:  Solving for p, Initial residual = 0.000148792604826, Final residual = 1.18060251713e-06, No Iterations 98
DICPCG:  Solving for p, Initial residual = 1.17631290128e-06, Final residual = 1.12948169065e-08, No Iterations 7
DICPCG:  Solving for p, Initial residual = 1.12946867608e-08, Final residual = 3.54050261797e-09, No Iterations 3
time step continuity errors : sum local = 3.96883825129e-10, global = -1.44816099525e-11, cumulative = 7.78405714957e-10
ExecutionTime = 0.77 s  ClockTime = 1 s

Time = 64

DILUPBiCGStab:  Solving for Ux, Initial residual = 0.00101464808798, Final residual = 2.3025875922e-10, No Iterations 3
DILUPBiCGStab:  Solving for Uy, Initial residual = 0.0025764306601, Final residual = 5.09524322038e-11, No Iterations 3
DILUPBiCGStab:  Solving for Uz, Initial residual = 0.00787903378005, Final residual = 5.7911038051e-10, No Iterations 3
DICPCG:  Solving for p, Initial residual = 0.00014302781672, Final residual = 1.36139913563e-06, No Iterations 98
DICPCG:  Solving for p, Initial residual = 1.3563858803e-06, Final residual = 1.21924597319e-08, No Iterations 8
DICPCG:  Solving for p, Initial residual = 1.21924096277e-08, Final residual = 3.98285670765e-09, No Iterations 3
time step continuity errors : sum local = 4.4758976517e-10, global = -2.57109637027e-11, cumulative = 7.52694751254e-10
ExecutionTime = 0.77 s  ClockTime = 1 s

Time = 65

DILUPBiCGStab:  Solving for Ux, Initial residual = 0.000969668659128, Final residual = 2.20454982691e-10, No Iterations 3
DILUPBiCGStab:  Solving for Uy, Initial residual = 0.00252434254436, Final residual = 4.8385567248e-11, No Iterations 3
DILUPBiCGStab:  Solving for Uz, Initial residual = 0.00750299343413, Final residual = 6.02946851274e-10, No Iterations 3
DICPCG:  Solving for p, Initial residual = 0.000137557892745, Final residual = 6.36331534938e-07, No Iterations 99
DICPCG:  Solving for p, Initial residual = 6.33961644012e-07, Final residual = 7.36194535986e-09, No Iterations 5
DICPCG:  Solving for p, Initial residual = 7.36197293161e-09, Final residual = 1.83740328696e-09, No Iterations 3
time step continuity errors : sum local = 2.07016721839e-10, global = -6.57214822659e-12, cumulative = 7.46122603028e-10
ExecutionTime = 0.79 s  ClockTime = 1 s

Time = 66

DILUPBiCGStab:  Solving for Ux, Initial residual = 0.000926302078867, Final residual = 2.10950692446e-10, No Iterations 3
DILUPBiCGStab:  Solving for Uy, Initial residual = 0.00247295393569, Final residual = 4.60785164075e-11, No Iterations 3
DILUPBiCGStab:  Solving for Uz, Initial residual = 0.00721914533634, Final residual = 5.75903029654e-10, No Iterations 3
DICPCG:  Solving for p, Initial residual = 0.00013243552362, Final residual = 6.91494155258e-07, No Iterations 99
DICPCG:  Solving for p, Initial residual = 6.88894948752e-07, Final residual = 8.36181267173e-09, No Iterations 5
DICPCG:  Solving for p, Initial residual = 8.36164670434e-09, Final residual = 2.42554395643e-09, No Iterations 3
time step continuity errors : sum local = 2.74001274929e-10, global = 7.38429446141e-12, cumulative = 7.53506897489e-10
ExecutionTime = 0.8 s  ClockTime = 1 s

Time = 67

DILUPBiCGStab:  Solving for Ux, Initial residual = 0.000884486893321, Final residual = 2.01751731536e-10, No Iterations 3
DILUPBiCGStab:  Solving for Uy, Initial residual = 0.0024218086301, Final residual = 4.40328880707e-11, No Iterations 3
DILUPBiCGStab:  Solving for Uz, Initial residual = 0.00689373519331, Final residual = 5.63987915502e-10, No Iterations 3
DICPCG:  Solving for p, Initial residual = 0.000127700482097, Final residual = 7.32713822314e-07, No Iterations 99
DICPCG:  Solving for p, Initial residual = 7.29938562063e-07, Final residual = 8.21038128228e-09, No Iterations 5
DICPCG:  Solving for p, Initial residual = 8.21047365453e-09, Final residual = 1.51919261371e-09, No Iterations 3
time step continuity errors : sum local = 1.72062664738e-10, global = 7.57489498252e-13, cumulative = 7.54264386988e-10
ExecutionTime = 0.81 s  ClockTime = 1 s

Time = 68

DILUPBiCGStab:  Solving for Ux, Initial residual = 0.000844171757707, Final residual = 1.9285993601e-10, No Iterations 3
DILUPBiCGStab:  Solving for Uy, Initial residual = 0.00237082799894, Final residual = 4.21652187364e-11, No Iterations 3
DILUPBiCGStab:  Solving for Uz, Initial residual = 0.00650158783641, Final residual = 5.24619613374e-10, No Iterations 3
DICPCG:  Solving for p, Initial residual = 0.00012326155197, Final residual = 7.64185073439e-07, No Iterations 99
DICPCG:  Solving for p, Initial residual = 7.61275039144e-07, Final residual = 8.47504916211e-09, No Iterations 5
DICPCG:  Solving for p, Initial residual = 8.47497057636e-09, Final residual = 1.51638337414e-09, No Iterations 3
time step continuity errors : sum local = 1.72213295846e-10, global = 1.26832777433e-13, cumulative = 7.54391219765e-10
ExecutionTime = 0.81 s  ClockTime = 1 s

Time = 69

DILUPBiCGStab:  Solving for Ux, Initial residual = 0.000805298742942, Final residual = 1.84280393268e-10, No Iterations 3
DILUPBiCGStab:  Solving for Uy, Initial residual = 0.00231994444374, Final residual = 4.04600395509e-11, No Iterations 3
DILUPBiCGStab:  Solving for Uz, Initial residual = 0.00616217115357, Final residual = 5.22051072208e-10, No Iterations 3
DICPCG:  Solving for p, Initial residual = 0.000119128836732, Final residual = 7.89898750483e-07, No Iterations 99
DICPCG:  Solving for p, Initial residual = 7.86879635712e-07, Final residual = 9.03826271678e-09, No Iterations 5
DICPCG:  Solving for p, Initial residual = 9.03816126293e-09, Final residual = 2.50612581243e-09, No Iterations 3
time step continuity errors : sum local = 2.8530521781e-10, global = 1.29763888894e-11, cumulative = 7.67367608654e-10
ExecutionTime = 0.83 s  ClockTime = 1 s

Time = 70

DILUPBiCGStab:  Solving for Ux, Initial residual = 0.000767823980683, Final residual = 1.76017347255e-10, No Iterations 3
DILUPBiCGStab:  Solving for Uy, Initial residual = 0.00226908155538, Final residual = 3.88688941107e-11, No Iterations 3
DILUPBiCGStab:  Solving for Uz, Initial residual = 0.00590029366688, Final residual = 5.14762276803e-10, No Iterations 3
DICPCG:  Solving for p, Initial residual = 0.000115269390659, Final residual = 8.13089521437e-07, No Iterations 99
DICPCG:  Solving for p, Initial residual = 8.09976048089e-07, Final residual = 8.93199068737e-09, No Iterations 5
DICPCG:  Solving for p, Initial residual = 8.9319880317e-09, Final residual = 1.66224861811e-09, No Iterations 3
time step continuity errors : sum local = 1.89745659983e-10, global = -9.05211918001e-12, cumulative = 7.58315489474e-10
ExecutionTime = 0.84 s  ClockTime = 1 s

Time = 71

DILUPBiCGStab:  Solving for Ux, Initial residual = 0.000731701015262, Final residual = 1.68093755884e-10, No Iterations 3
DILUPBiCGStab:  Solving for Uy, Initial residual = 0.00221815636196, Final residual = 3.73727193181e-11, No Iterations 3
DILUPBiCGStab:  Solving for Uz, Initial residual = 0.00570649923956, Final residual = 4.99857258468e-10, No Iterations 3
DICPCG:  Solving for p, Initial residual = 0.000111627752547, Final residual = 8.32191816081e-07, No Iterations 99
DICPCG:  Solving for p, Initial residual = 8.29004647163e-07, Final residual = 9.16602629343e-09, No Iterations 5
DICPCG:  Solving for p, Initial residual = 9.16620067527e-09, Final residual = 1.87783574769e-09, No Iterations 3
time step continuity errors : sum local = 2.1490137207e-10, global = -9.97196708064e-12, cumulative = 7.48343522394e-10
ExecutionTime = 0.85 s  ClockTime = 1 s

Time = 72

DILUPBiCGStab:  Solving for Ux, Initial residual = 0.000696888195527, Final residual = 1.60512725011e-10, No Iterations 3
DILUPBiCGStab:  Solving for Uy, Initial residual = 0.00216719152826, Final residual = 3.59520390881e-11, No Iterations 3
DILUPBiCGStab:  Solving for Uz, Initial residual = 0.0054705300264, Final residual = 4.88007743269e-10, No Iterations 3
DICPCG:  Solving for p, Initial residual = 0.000108203958091, Final residual = 8.40885435034e-07, No Iterations 99
DICPCG:  Solving for p, Initial residual = 8.37669905944e-07, Final residual = 8.30619219269e-09, No Iterations 11
DICPCG:  Solving for p, Initial residual = 8.30623663677e-09, Final residual = 2.03414376469e-09, No Iterations 3
time step continuity errors : sum local = 2.33422574866e-10, global = -4.0372815263e-12, cumulative = 7.44306240867e-10
ExecutionTime = 0.86 s  ClockTime = 1 s

Time = 73

DILUPBiCGStab:  Solving for Ux, Initial residual = 0.000663349788249, Final residual = 1.53124169498e-10, No Iterations 3
DILUPBiCGStab:  Solving for Uy, Initial residual = 0.00211622726793, Final residual = 3.45958325705e-11, No Iterations 3
DILUPBiCGStab:  Solving for Uz, Initial residual = 0.00517516484365, Final residual = 4.45947185644e-10, No Iterations 3
DICPCG:  Solving for p, Initial residual = 0.00010503445193, Final residual = 8.61119131727e-07, No Iterations 99
DICPCG:  Solving for p, Initial residual = 8.57837078519e-07, Final residual = 9.80677034609e-09, No Iterations 5
DICPCG:  Solving for p, Initial residual = 9.80666571207e-09, Final residual = 2.19165562831e-09, No Iterations 3
time step continuity errors : sum local = 2.52157529296e-10, global = 7.81293512267e-12, cumulative = 7.5211917599e-10
ExecutionTime = 0.87 s  ClockTime = 1 s

Time = 74

DILUPBiCGStab:  Solving for Ux, Initial residual = 0.000631051500828, Final residual = 1.45910305167e-10, No Iterations 3
DILUPBiCGStab:  Solving for Uy, Initial residual = 0.00206524427282, Final residual = 3.32819116838e-11, No Iterations 3
DILUPBiCGStab:  Solving for Uz, Initial residual = 0.00488890441229, Final residual = 4.3446844719e-10, No Iterations 3
DICPCG:  Solving for p, Initial residual = 0.000102050044228, Final residual = 8.71469439708e-07, No Iterations 99
DICPCG:  Solving for p, Initial residual = 8.68164169167e-07, Final residual = 9.83501126272e-09, No Iterations 5
DICPCG:  Solving for p, Initial residual = 9.8347538503e-09, Final residual = 1.90324079778e-09, No Iterations 3
time step continuity errors : sum local = 2.19515059424e-10, global = -5.68781330001e-12, cumulative = 7.4643136269e-10
ExecutionTime = 0.89 s  ClockTime = 1 s

Time = 75

DILUPBiCGStab:  Solving for Ux, Initial residual = 0.000599966389199, Final residual = 1.388755916e-10, No Iterations 3
DILUPBiCGStab:  Solving for Uy, Initial residual = 0.00201438850724, Final residual = 3.19891440066e-11, No Iterations 3
DILUPBiCGStab:  Solving for Uz, Initial residual = 0.00480313332714, Final residual = 5.21744451094e-10, No Iterations 3
DICPCG:  Solving for p, Initial residual = 9.9265155501e-05, Final residual = 8.79037387621e-07, No Iterations 99
DICPCG:  Solving for p, Initial residual = 8.75724792486e-07, Final residual = 9.9761424318e-09, No Iterations 5
DICPCG:  Solving for p, Initial residual = 9.97624607449e-09, Final residual = 1.84136671959e-09, No Iterations 3
time step continuity errors : sum local = 2.12954830638e-10, global = -4.31072430143e-12, cumulative = 7.42120638389e-10
ExecutionTime = 0.9 s  ClockTime = 1 s

Time = 76

DILUPBiCGStab:  Solving for Ux, Initial residual = 0.000570066556375, Final residual = 1.32024366806e-10, No Iterations 3
DILUPBiCGStab:  Solving for Uy, Initial residual = 0.00196360517019, Final residual = 3.07052840758e-11, No Iterations 3
DILUPBiCGStab:  Solving for Uz, Initial residual = 0.00445844274535, Final residual = 4.72341041173e-10, No Iterations 3
DICPCG:  Solving for p, Initial residual = 9.66303271985e-05, Final residual = 8.84496297096e-07, No Iterations 99
DICPCG:  Solving for p, Initial residual = 8.81190393922e-07, Final residual = 5.32318178792e-09, No Iterations 6
DICPCG:  Solving for p, Initial residual = 5.32323563739e-09, Final residual = 1.45073952361e-09, No Iterations 3
time step continuity errors : sum local = 1.68191397685e-10, global = -5.17074255596e-12, cumulative = 7.36949895833e-10
ExecutionTime = 0.91 s  ClockTime = 1 s

Time = 77

DILUPBiCGStab:  Solving for Ux, Initial residual = 0.00054131577861, Final residual = 1.25361155048e-10, No Iterations 3
DILUPBiCGStab:  Solving for Uy, Initial residual = 0.00191282657678, Final residual = 2.94411809091e-11, No Iterations 3
DILUPBiCGStab:  Solving for Uz, Initial residual = 0.00438562386995, Final residual = 5.26122651739e-10, No Iterations 3
DICPCG:  Solving for p, Initial residual = 9.4160618164e-05, Final residual = 8.88512686551e-07, No Iterations 99
DICPCG:  Solving for p, Initial residual = 8.85223492888e-07, Final residual = 5.45913458322e-09, No Iterations 6
DICPCG:  Solving for p, Initial residual = 5.45916064271e-09, Final residual = 1.47219797434e-09, No Iterations 3
time step continuity errors : sum local = 1.71120103609e-10, global = -6.22837888016e-12, cumulative = 7.30721516953e-10
ExecutionTime = 0.93 s  ClockTime = 1 s

Time = 78

DILUPBiCGStab:  Solving for Ux, Initial residual = 0.000513677663345, Final residual = 1.18888540299e-10, No Iterations 3
DILUPBiCGStab:  Solving for Uy, Initial residual = 0.00186207559975, Final residual = 2.82191735792e-11, No Iterations 3
DILUPBiCGStab:  Solving for Uz, Initial residual = 0.00412632161077, Final residual = 4.42848372803e-10, No Iterations 3
DICPCG:  Solving for p, Initial residual = 9.18096698917e-05, Final residual = 8.91678095984e-07, No Iterations 99
DICPCG:  Solving for p, Initial residual = 8.88413287547e-07, Final residual = 5.619902096e-09, No Iterations 6
DICPCG:  Solving for p, Initial residual = 5.62001379129e-09, Final residual = 1.51987851958e-09, No Iterations 3
time step continuity errors : sum local = 1.77093351509e-10, global = -9.62264704737e-12, cumulative = 7.21098869905e-10
ExecutionTime = 0.94 s  ClockTime = 1 s

Time = 79

DILUPBiCGStab:  Solving for Ux, Initial residual = 0.000487116372724, Final residual = 1.12613315756e-10, No Iterations 3
DILUPBiCGStab:  Solving for Uy, Initial residual = 0.00181133971573, Final residual = 2.70533784876e-11, No Iterations 3
DILUPBiCGStab:  Solving for Uz, Initial residual = 0.00398145592289, Final residual = 4.47802718846e-10, No Iterations 3
DICPCG:  Solving for p, Initial residual = 8.95798006714e-05, Final residual = 8.94220763508e-07, No Iterations 99
DICPCG:  Solving for p, Initial residual = 8.9098745177e-07, Final residual = 5.7605016277e-09, No Iterations 6
DICPCG:  Solving for p, Initial residual = 5.76051194498e-09, Final residual = 1.59784678956e-09, No Iterations 3
time step continuity errors : sum local = 1.86653510098e-10, global = 7.07342791525e-12, cumulative = 7.2817229782e-10
ExecutionTime = 0.95 s  ClockTime = 1 s

Time = 80

DILUPBiCGStab:  Solving for Ux, Initial residual = 0.000461599602756, Final residual = 1.06534871229e-10, No Iterations 3
DILUPBiCGStab:  Solving for Uy, Initial residual = 0.00176064369011, Final residual = 2.59547912559e-11, No Iterations 3
DILUPBiCGStab:  Solving for Uz, Initial residual = 0.00372300089974, Final residual = 4.65279674535e-10, No Iterations 3
DICPCG:  Solving for p, Initial residual = 8.74465228202e-05, Final residual = 1.9402830336e-07, No Iterations 100
DICPCG:  Solving for p, Initial residual = 1.93336716788e-07, Final residual = 2.52944441362e-09, No Iterations 3
DICPCG:  Solving for p, Initial residual = 2.52949502333e-09, Final residual = 1.83430374567e-10, No Iterations 3
time step continuity errors : sum local = 2.15196253308e-11, global = -8.76820710149e-14, cumulative = 7.28084615749e-10
ExecutionTime = 0.95 s  ClockTime = 1 s

Time = 81

DILUPBiCGStab:  Solving for Ux, Initial residual = 0.000437097104808, Final residual = 1.00657512241e-10, No Iterations 3
DILUPBiCGStab:  Solving for Uy, Initial residual = 0.00171004818378, Final residual = 2.49582448401e-11, No Iterations 3
DILUPBiCGStab:  Solving for Uz, Initial residual = 0.00355201262994, Final residual = 4.44738155201e-10, No Iterations 3
DICPCG:  Solving for p, Initial residual = 8.54018995798e-05, Final residual = 1.91579526669e-07, No Iterations 100
DICPCG:  Solving for p, Initial residual = 1.90906752043e-07, Final residual = 2.49454982147e-09, No Iterations 3
DICPCG:  Solving for p, Initial residual = 2.49473441935e-09, Final residual = 1.79575284948e-10, No Iterations 3
time step continuity errors : sum local = 2.11297066121e-11, global = -1.58454730056e-13, cumulative = 7.27926161019e-10
ExecutionTime = 0.97 s  ClockTime = 1 s

Time = 82

DILUPBiCGStab:  Solving for Ux, Initial residual = 0.000413581541287, Final residual = 9.4981776405e-11, No Iterations 3
DILUPBiCGStab:  Solving for Uy, Initial residual = 0.0016595951415, Final residual = 2.40179372795e-11, No Iterations 3
DILUPBiCGStab:  Solving for Uz, Initial residual = 0.00347363435592, Final residual = 4.30746025597e-10, No Iterations 3
DICPCG:  Solving for p, Initial residual = 8.34521207925e-05, Final residual = 1.89458197889e-07, No Iterations 100
DICPCG:  Solving for p, Initial residual = 1.88804223581e-07, Final residual = 2.4585935551e-09, No Iterations 3
DICPCG:  Solving for p, Initial residual = 2.45861082539e-09, Final residual = 1.78574545572e-10, No Iterations 3
time step continuity errors : sum local = 2.10466166652e-11, global = -1.92594703878e-13, cumulative = 7.27733566316e-10
ExecutionTime = 0.98 s  ClockTime = 1 s

Time = 83

DILUPBiCGStab:  Solving for Ux, Initial residual = 0.000391024313489, Final residual = 8.95095050634e-11, No Iterations 3
DILUPBiCGStab:  Solving for Uy, Initial residual = 0.00160932091936, Final residual = 2.31372167815e-11, No Iterations 3
DILUPBiCGStab:  Solving for Uz, Initial residual = 0.00330942089505, Final residual = 4.09025840156e-10, No Iterations 3
DICPCG:  Solving for p, Initial residual = 8.15738219512e-05, Final residual = 1.88290142213e-07, No Iterations 100
DICPCG:  Solving for p, Initial residual = 1.8765209643e-07, Final residual = 2.41201530407e-09, No Iterations 3
DICPCG:  Solving for p, Initial residual = 2.41221816068e-09, Final residual = 1.73031645978e-10, No Iterations 3
time step continuity errors : sum local = 2.04450465468e-11, global = -3.23656360903e-13, cumulative = 7.27409909955e-10
ExecutionTime = 0.98 s  ClockTime = 1 s

Time = 84

DILUPBiCGStab:  Solving for Ux, Initial residual = 0.000369398587229, Final residual = 8.42418225558e-11, No Iterations 3
DILUPBiCGStab:  Solving for Uy, Initial residual = 0.00155923909699, Final residual = 2.22887057067e-11, No Iterations 3
DILUPBiCGStab:  Solving for Uz, Initial residual = 0.00305995545737, Final residual = 3.88492113971e-10, No Iterations 3
DICPCG:  Solving for p, Initial residual = 7.97741446551e-05, Final residual = 1.88382481557e-07, No Iterations 100
DICPCG:  Solving for p, Initial residual = 1.87756516921e-07, Final residual = 2.43975430434e-09, No Iterations 3
DICPCG:  Solving for p, Initial residual = 2.43956459303e-09, Final residual = 2.22527795503e-10, No Iterations 3
time step continuity errors : sum local = 2.63097297008e-11, global = -1.42669709355e-12, cumulative = 7.25983212861e-10
ExecutionTime = 0.99 s  ClockTime = 1 s

Time = 85

DILUPBiCGStab:  Solving for Ux, Initial residual = 0.00034868103747, Final residual = 7.91779696273e-11, No Iterations 3
DILUPBiCGStab:  Solving for Uy, Initial residual = 0.0015094435674, Final residual = 2.14706481004e-11, No Iterations 3
DILUPBiCGStab:  Solving for Uz, Initial residual = 0.0029405714932, Final residual = 3.55684191969e-10, No Iterations 3
DICPCG:  Solving for p, Initial residual = 7.80404111774e-05, Final residual = 1.8994136134e-07, No Iterations 100
DICPCG:  Solving for p, Initial residual = 1.89323561488e-07, Final residual = 2.51179275081e-09, No Iterations 3
DICPCG:  Solving for p, Initial residual = 2.51154069017e-09, Final residual = 2.05142107511e-10, No Iterations 3
time step continuity errors : sum local = 2.43594941258e-11, global = 6.02342027715e-13, cumulative = 7.26585554889e-10
ExecutionTime = 1.01 s  ClockTime = 1 s

Time = 86

DILUPBiCGStab:  Solving for Ux, Initial residual = 0.000328845194008, Final residual = 7.43183115604e-11, No Iterations 3
DILUPBiCGStab:  Solving for Uy, Initial residual = 0.00145998041355, Final residual = 2.06662939745e-11, No Iterations 3
DILUPBiCGStab:  Solving for Uz, Initial residual = 0.00290447696711, Final residual = 3.62253932197e-10, No Iterations 3
DICPCG:  Solving for p, Initial residual = 7.63708225506e-05, Final residual = 1.92129251605e-07, No Iterations 100
DICPCG:  Solving for p, Initial residual = 1.91518445703e-07, Final residual = 2.57251511567e-09, No Iterations 3
DICPCG:  Solving for p, Initial residual = 2.57282926647e-09, Final residual = 2.04053506705e-10, No Iterations 3
time step continuity errors : sum local = 2.42644207464e-11, global = 2.40573486859e-13, cumulative = 7.26826128376e-10
ExecutionTime = 1.02 s  ClockTime = 1 s

Time = 87

DILUPBiCGStab:  Solving for Ux, Initial residual = 0.000309867595508, Final residual = 6.96621681319e-11, No Iterations 3
DILUPBiCGStab:  Solving for Uy, Initial residual = 0.00141084273521, Final residual = 1.98784626291e-11, No Iterations 3
DILUPBiCGStab:  Solving for Uz, Initial residual = 0.00268498819345, Final residual = 3.27337582183e-10, No Iterations 3
DICPCG:  Solving for p, Initial residual = 7.47622330933e-05, Final residual = 1.94140345985e-07, No Iterations 100
DICPCG:  Solving for p, Initial residual = 1.93538139857e-07, Final residual = 2.6291177592e-09, No Iterations 3
DICPCG:  Solving for p, Initial residual = 2.62912369403e-09, Final residual = 2.17531746164e-10, No Iterations 3
time step continuity errors : sum local = 2.59465287181e-11, global = 1.75797963633e-13, cumulative = 7.27001926339e-10
ExecutionTime = 1.03 s  ClockTime = 1 s

Time = 88

DILUPBiCGStab:  Solving for Ux, Initial residual = 0.000291723441032, Final residual = 6.52075875118e-11, No Iterations 3
DILUPBiCGStab:  Solving for Uy, Initial residual = 0.00136206120246, Final residual = 1.91046379577e-11, No Iterations 3
DILUPBiCGStab:  Solving for Uz, Initial residual = 0.00254532384506, Final residual = 2.94373320803e-10, No Iterations 3
DICPCG:  Solving for p, Initial residual = 7.32009568965e-05, Final residual = 1.94915135959e-07, No Iterations 100
DICPCG:  Solving for p, Initial residual = 1.94325927735e-07, Final residual = 2.6714213359e-09, No Iterations 3
DICPCG:  Solving for p, Initial residual = 2.6714649627e-09, Final residual = 2.36019350176e-10, No Iterations 3
time step continuity errors : sum local = 2.81742695704e-11, global = 1.51414445188e-13, cumulative = 7.27153340784e-10
ExecutionTime = 1.04 s  ClockTime = 1 s

Time = 89

DILUPBiCGStab:  Solving for Ux, Initial residual = 0.000274390083655, Final residual = 6.09531301629e-11, No Iterations 3
DILUPBiCGStab:  Solving for Uy, Initial residual = 0.00131367542926, Final residual = 1.83450654126e-11, No Iterations 3
[...]
DILUPBiCGStab:  Solving for Uz, Initial residual = 0.000663529442536, Final residual = 3.10144430174e-10, No Iterations 3
DICPCG:  Solving for p, Initial residual = 4.06964953188e-12, Final residual = 1.05909627871e-12, No Iterations 3
DICPCG:  Solving for p, Initial residual = 4.61308506568e-12, Final residual = 9.68660154041e-13, No Iterations 3
DICPCG:  Solving for p, Initial residual = 4.62169979416e-12, Final residual = 2.65777409086e-12, No Iterations 3
time step continuity errors : sum local = 6.45548693232e-13, global = -4.64077446454e-15, cumulative = 3.45081063798e-09
ExecutionTime = 8.64 s  ClockTime = 8 s

Time = 979

DILUPBiCGStab:  Solving for Ux, Initial residual = 2.06904483701e-14, Final residual = 3.6252463679e-20, No Iterations 3
DILUPBiCGStab:  Solving for Uy, Initial residual = 2.54196563677e-12, Final residual = 4.61071846236e-18, No Iterations 3
DILUPBiCGStab:  Solving for Uz, Initial residual = 0.000662437500843, Final residual = 4.74438343354e-10, No Iterations 3
DICPCG:  Solving for p, Initial residual = 4.27894047671e-12, Final residual = 1.02271731805e-12, No Iterations 3
DICPCG:  Solving for p, Initial residual = 4.62692837264e-12, Final residual = 6.87756572206e-13, No Iterations 3
DICPCG:  Solving for p, Initial residual = 4.70260795705e-12, Final residual = 8.744481384e-13, No Iterations 3
time step continuity errors : sum local = 6.42880854674e-13, global = -4.17206169738e-15, cumulative = 3.45080646592e-09
ExecutionTime = 8.65 s  ClockTime = 8 s

Time = 980

DILUPBiCGStab:  Solving for Ux, Initial residual = 2.21849035822e-14, Final residual = 5.1294179773e-20, No Iterations 3
DILUPBiCGStab:  Solving for Uy, Initial residual = 2.58228853461e-12, Final residual = 1.18131155659e-18, No Iterations 3
DILUPBiCGStab:  Solving for Uz, Initial residual = 0.000714534897465, Final residual = 1.41260826095e-10, No Iterations 3
DICPCG:  Solving for p, Initial residual = 4.27304552435e-12, Final residual = 1.12995458659e-12, No Iterations 3
DICPCG:  Solving for p, Initial residual = 4.60816494953e-12, Final residual = 3.85546946509e-13, No Iterations 3
DICPCG:  Solving for p, Initial residual = 4.33361075242e-12, Final residual = 1.24382916678e-12, No Iterations 3
time step continuity errors : sum local = 6.19110581614e-13, global = -3.56005862826e-15, cumulative = 3.45080290586e-09
ExecutionTime = 8.65 s  ClockTime = 8 s

Time = 981

DILUPBiCGStab:  Solving for Ux, Initial residual = 2.50420276457e-14, Final residual = 4.57577652166e-20, No Iterations 3
DILUPBiCGStab:  Solving for Uy, Initial residual = 3.16417562069e-12, Final residual = 1.66824062352e-18, No Iterations 3
DILUPBiCGStab:  Solving for Uz, Initial residual = 0.000719798703149, Final residual = 1.87832357263e-10, No Iterations 3
DICPCG:  Solving for p, Initial residual = 4.37645186284e-12, Final residual = 2.05918482136e-12, No Iterations 3
DICPCG:  Solving for p, Initial residual = 4.80294961074e-12, Final residual = 7.16773642659e-13, No Iterations 3
DICPCG:  Solving for p, Initial residual = 4.64583545099e-12, Final residual = 1.4613867675e-12, No Iterations 3
time step continuity errors : sum local = 6.41945491265e-13, global = -3.41011193127e-15, cumulative = 3.45079949575e-09
ExecutionTime = 8.66 s  ClockTime = 8 s

Time = 982

DILUPBiCGStab:  Solving for Ux, Initial residual = 2.64643901559e-14, Final residual = 3.98805671575e-20, No Iterations 3
DILUPBiCGStab:  Solving for Uy, Initial residual = 3.02873699485e-12, Final residual = 1.48211538731e-18, No Iterations 3
DILUPBiCGStab:  Solving for Uz, Initial residual = 0.000701340446779, Final residual = 1.80793893939e-10, No Iterations 3
DICPCG:  Solving for p, Initial residual = 4.21755345606e-12, Final residual = 7.55716244066e-13, No Iterations 3
DICPCG:  Solving for p, Initial residual = 4.57664723293e-12, Final residual = 1.03486376805e-12, No Iterations 3
DICPCG:  Solving for p, Initial residual = 4.65229980372e-12, Final residual = 1.55842366848e-12, No Iterations 3
time step continuity errors : sum local = 6.26377897775e-13, global = -2.86352139584e-15, cumulative = 3.45079663223e-09
ExecutionTime = 8.67 s  ClockTime = 8 s

Time = 983

DILUPBiCGStab:  Solving for Ux, Initial residual = 2.04492287574e-14, Final residual = 3.98728031794e-20, No Iterations 3
DILUPBiCGStab:  Solving for Uy, Initial residual = 2.47523721923e-12, Final residual = 1.6727917865e-18, No Iterations 3
DILUPBiCGStab:  Solving for Uz, Initial residual = 0.000681934054085, Final residual = 3.61071979634e-10, No Iterations 3
DICPCG:  Solving for p, Initial residual = 4.36609631293e-12, Final residual = 7.70613893087e-13, No Iterations 3
DICPCG:  Solving for p, Initial residual = 4.89504654624e-12, Final residual = 7.91720259277e-13, No Iterations 3
DICPCG:  Solving for p, Initial residual = 5.11566917647e-12, Final residual = 5.56349636306e-13, No Iterations 3
time step continuity errors : sum local = 6.30477484288e-13, global = -2.53545882721e-15, cumulative = 3.45079409677e-09
ExecutionTime = 8.68 s  ClockTime = 8 s

Time = 984

DILUPBiCGStab:  Solving for Ux, Initial residual = 2.12802856425e-14, Final residual = 5.45953601591e-20, No Iterations 3
DILUPBiCGStab:  Solving for Uy, Initial residual = 2.47800972947e-12, Final residual = 1.98555137705e-18, No Iterations 3
DILUPBiCGStab:  Solving for Uz, Initial residual = 0.000696098020531, Final residual = 1.47946910647e-10, No Iterations 3
DICPCG:  Solving for p, Initial residual = 4.31334173617e-12, Final residual = 1.19433301234e-12, No Iterations 3
DICPCG:  Solving for p, Initial residual = 4.5529524491e-12, Final residual = 4.25737345445e-12, No Iterations 3
DICPCG:  Solving for p, Initial residual = 5.84702012176e-12, Final residual = 5.93224064239e-13, No Iterations 3
time step continuity errors : sum local = 6.29762158425e-13, global = -2.66570257053e-15, cumulative = 3.45079143107e-09
ExecutionTime = 8.69 s  ClockTime = 8 s

Time = 985

DILUPBiCGStab:  Solving for Ux, Initial residual = 2.00494851062e-14, Final residual = 4.0701867515e-20, No Iterations 3
DILUPBiCGStab:  Solving for Uy, Initial residual = 2.75713939423e-12, Final residual = 1.5113332882e-18, No Iterations 3
DILUPBiCGStab:  Solving for Uz, Initial residual = 0.000662838591665, Final residual = 1.46347807238e-10, No Iterations 3
DICPCG:  Solving for p, Initial residual = 4.3124651575e-12, Final residual = 1.70485440246e-12, No Iterations 3
DICPCG:  Solving for p, Initial residual = 4.6594648525e-12, Final residual = 2.10100797158e-12, No Iterations 3
DICPCG:  Solving for p, Initial residual = 4.76991552462e-12, Final residual = 1.75750700489e-12, No Iterations 3
time step continuity errors : sum local = 6.23403284572e-13, global = -2.63969810388e-15, cumulative = 3.45078879137e-09
ExecutionTime = 8.7 s  ClockTime = 8 s

Time = 986

DILUPBiCGStab:  Solving for Ux, Initial residual = 2.55913861909e-14, Final residual = 3.66907791806e-20, No Iterations 3
DILUPBiCGStab:  Solving for Uy, Initial residual = 2.87605045498e-12, Final residual = 1.50504062789e-18, No Iterations 3
DILUPBiCGStab:  Solving for Uz, Initial residual = 0.000701724484196, Final residual = 1.3389360078e-10, No Iterations 3
DICPCG:  Solving for p, Initial residual = 4.52887755389e-12, Final residual = 1.43243963828e-12, No Iterations 3
DICPCG:  Solving for p, Initial residual = 4.70588079553e-12, Final residual = 2.78724231984e-12, No Iterations 3
DICPCG:  Solving for p, Initial residual = 4.90431053691e-12, Final residual = 1.74155138735e-12, No Iterations 3
time step continuity errors : sum local = 6.12809086865e-13, global = -3.20791163145e-15, cumulative = 3.45078558346e-09
ExecutionTime = 8.7 s  ClockTime = 8 s

Time = 987

DILUPBiCGStab:  Solving for Ux, Initial residual = 1.9603300533e-14, Final residual = 3.60009630121e-20, No Iterations 3
DILUPBiCGStab:  Solving for Uy, Initial residual = 2.41130182037e-12, Final residual = 4.21581413809e-18, No Iterations 3
DILUPBiCGStab:  Solving for Uz, Initial residual = 0.00069063827727, Final residual = 5.11853372226e-10, No Iterations 3
DICPCG:  Solving for p, Initial residual = 4.28492090829e-12, Final residual = 1.0272931701e-12, No Iterations 3
DICPCG:  Solving for p, Initial residual = 4.76640159376e-12, Final residual = 1.35011022374e-12, No Iterations 3
DICPCG:  Solving for p, Initial residual = 4.56475969216e-12, Final residual = 8.36074174398e-13, No Iterations 3
time step continuity errors : sum local = 6.27268069697e-13, global = -3.41380245092e-15, cumulative = 3.45078216965e-09
ExecutionTime = 8.71 s  ClockTime = 8 s

Time = 988

DILUPBiCGStab:  Solving for Ux, Initial residual = 2.02863030756e-14, Final residual = 4.19261435763e-20, No Iterations 3
DILUPBiCGStab:  Solving for Uy, Initial residual = 2.64193484189e-12, Final residual = 3.13325788208e-18, No Iterations 3
DILUPBiCGStab:  Solving for Uz, Initial residual = 0.000752191988388, Final residual = 2.46342020995e-10, No Iterations 3
DICPCG:  Solving for p, Initial residual = 4.27044595679e-12, Final residual = 1.31277410638e-12, No Iterations 3
DICPCG:  Solving for p, Initial residual = 4.87573198368e-12, Final residual = 8.60460831276e-13, No Iterations 3
DICPCG:  Solving for p, Initial residual = 4.56220320245e-12, Final residual = 1.94710536479e-12, No Iterations 3
time step continuity errors : sum local = 6.5285469974e-13, global = -4.18804122282e-15, cumulative = 3.45077798161e-09
ExecutionTime = 8.72 s  ClockTime = 8 s

Time = 989

DILUPBiCGStab:  Solving for Ux, Initial residual = 2.9096525026e-14, Final residual = 6.73335907931e-19, No Iterations 3
DILUPBiCGStab:  Solving for Uy, Initial residual = 2.98267828074e-12, Final residual = 1.43659612666e-18, No Iterations 3
DILUPBiCGStab:  Solving for Uz, Initial residual = 0.000731499199784, Final residual = 1.11221154246e-10, No Iterations 3
DICPCG:  Solving for p, Initial residual = 4.37483242065e-12, Final residual = 1.74023475303e-12, No Iterations 3
DICPCG:  Solving for p, Initial residual = 4.48982267679e-12, Final residual = 5.54266345495e-13, No Iterations 3
DICPCG:  Solving for p, Initial residual = 4.6017787291e-12, Final residual = 1.32702404155e-12, No Iterations 3
time step continuity errors : sum local = 6.29713938272e-13, global = -4.99451170158e-15, cumulative = 3.4507729871e-09
ExecutionTime = 8.73 s  ClockTime = 8 s

Time = 990

DILUPBiCGStab:  Solving for Ux, Initial residual = 2.46430659777e-14, Final residual = 2.33631035282e-19, No Iterations 3
DILUPBiCGStab:  Solving for Uy, Initial residual = 2.72786624303e-12, Final residual = 2.10353922433e-18, No Iterations 3
DILUPBiCGStab:  Solving for Uz, Initial residual = 0.00067615953248, Final residual = 3.03154437126e-10, No Iterations 3
DICPCG:  Solving for p, Initial residual = 4.45311239236e-12, Final residual = 1.70143092556e-12, No Iterations 3
DICPCG:  Solving for p, Initial residual = 4.51868974695e-12, Final residual = 7.20873955349e-13, No Iterations 3
DICPCG:  Solving for p, Initial residual = 4.61886823887e-12, Final residual = 1.1992843333e-12, No Iterations 3
time step continuity errors : sum local = 6.20990446305e-13, global = -5.58611212165e-15, cumulative = 3.45076740099e-09
ExecutionTime = 8.73 s  ClockTime = 8 s

Time = 991

DILUPBiCGStab:  Solving for Ux, Initial residual = 2.15642889546e-14, Final residual = 5.063002547e-20, No Iterations 3
DILUPBiCGStab:  Solving for Uy, Initial residual = 2.65489639299e-12, Final residual = 5.15486028016e-18, No Iterations 3
DILUPBiCGStab:  Solving for Uz, Initial residual = 0.000644472174417, Final residual = 1.335862637e-10, No Iterations 3
DICPCG:  Solving for p, Initial residual = 4.40227655182e-12, Final residual = 1.43429339813e-12, No Iterations 3
DICPCG:  Solving for p, Initial residual = 4.72825327313e-12, Final residual = 1.99335303951e-12, No Iterations 3
DICPCG:  Solving for p, Initial residual = 4.73372841692e-12, Final residual = 1.21582684788e-12, No Iterations 3
time step continuity errors : sum local = 6.16777193569e-13, global = -6.13288424892e-15, cumulative = 3.4507612681e-09
ExecutionTime = 8.74 s  ClockTime = 8 s

Time = 992

DILUPBiCGStab:  Solving for Ux, Initial residual = 2.44343379365e-14, Final residual = 1.08951080904e-19, No Iterations 3
DILUPBiCGStab:  Solving for Uy, Initial residual = 2.70489256612e-12, Final residual = 1.1229984959e-18, No Iterations 3
DILUPBiCGStab:  Solving for Uz, Initial residual = 0.000671845929048, Final residual = 2.5304414517e-09, No Iterations 3
DICPCG:  Solving for p, Initial residual = 4.1791844041e-12, Final residual = 9.35515945536e-13, No Iterations 3
DICPCG:  Solving for p, Initial residual = 4.78820147904e-12, Final residual = 2.50331630047e-12, No Iterations 3
DICPCG:  Solving for p, Initial residual = 5.03550594463e-12, Final residual = 1.96572340455e-12, No Iterations 3
time step continuity errors : sum local = 6.4693853322e-13, global = -6.98671171841e-15, cumulative = 3.45075428139e-09
ExecutionTime = 8.75 s  ClockTime = 8 s

Time = 993

DILUPBiCGStab:  Solving for Ux, Initial residual = 2.33363447782e-14, Final residual = 4.70964787644e-20, No Iterations 3
DILUPBiCGStab:  Solving for Uy, Initial residual = 2.68591281163e-12, Final residual = 4.89584799487e-18, No Iterations 3
DILUPBiCGStab:  Solving for Uz, Initial residual = 0.0006760797472, Final residual = 1.05448055309e-10, No Iterations 3
DICPCG:  Solving for p, Initial residual = 4.31229772924e-12, Final residual = 1.14283459597e-12, No Iterations 3
DICPCG:  Solving for p, Initial residual = 4.6030839371e-12, Final residual = 3.32017409223e-12, No Iterations 3
DICPCG:  Solving for p, Initial residual = 5.08603766465e-12, Final residual = 3.43201056998e-13, No Iterations 3
time step continuity errors : sum local = 6.29885841447e-13, global = -7.68636982885e-15, cumulative = 3.45074659502e-09
ExecutionTime = 8.76 s  ClockTime = 8 s

Time = 994

DILUPBiCGStab:  Solving for Ux, Initial residual = 2.29926341483e-14, Final residual = 5.59650952646e-20, No Iterations 3
DILUPBiCGStab:  Solving for Uy, Initial residual = 2.84227646685e-12, Final residual = 1.50521155782e-18, No Iterations 3
DILUPBiCGStab:  Solving for Uz, Initial residual = 0.000658129394194, Final residual = 1.48474766216e-10, No Iterations 3
DICPCG:  Solving for p, Initial residual = 4.23608038735e-12, Final residual = 5.64578054294e-13, No Iterations 3
DICPCG:  Solving for p, Initial residual = 4.67675937892e-12, Final residual = 9.72808073131e-13, No Iterations 3
DICPCG:  Solving for p, Initial residual = 4.67336922458e-12, Final residual = 9.38718630011e-13, No Iterations 3
time step continuity errors : sum local = 6.50366037471e-13, global = -8.04474909087e-15, cumulative = 3.45073855027e-09
ExecutionTime = 8.76 s  ClockTime = 8 s

Time = 995

DILUPBiCGStab:  Solving for Ux, Initial residual = 2.40657643395e-14, Final residual = 4.95008959821e-20, No Iterations 3
DILUPBiCGStab:  Solving for Uy, Initial residual = 2.9086098902e-12, Final residual = 5.78105488602e-18, No Iterations 3
DILUPBiCGStab:  Solving for Uz, Initial residual = 0.000651239296994, Final residual = 3.05074738097e-10, No Iterations 3
DICPCG:  Solving for p, Initial residual = 4.18983093297e-12, Final residual = 7.87809956043e-13, No Iterations 3
DICPCG:  Solving for p, Initial residual = 4.6907608056e-12, Final residual = 3.76839333377e-13, No Iterations 3
DICPCG:  Solving for p, Initial residual = 4.52953918221e-12, Final residual = 8.71221749171e-13, No Iterations 3
time step continuity errors : sum local = 6.54154996578e-13, global = -8.73825035592e-15, cumulative = 3.45072981202e-09
ExecutionTime = 8.77 s  ClockTime = 8 s

Time = 996

DILUPBiCGStab:  Solving for Ux, Initial residual = 2.62663366972e-14, Final residual = 5.21292230158e-20, No Iterations 3
DILUPBiCGStab:  Solving for Uy, Initial residual = 3.25332179376e-12, Final residual = 4.08653237432e-18, No Iterations 3
DILUPBiCGStab:  Solving for Uz, Initial residual = 0.000680774704898, Final residual = 1.44126409116e-10, No Iterations 3
DICPCG:  Solving for p, Initial residual = 4.45676947913e-12, Final residual = 9.92062160497e-13, No Iterations 3
DICPCG:  Solving for p, Initial residual = 4.56923071271e-12, Final residual = 2.66207451379e-12, No Iterations 3
DICPCG:  Solving for p, Initial residual = 4.84475711376e-12, Final residual = 1.24576286607e-12, No Iterations 3
time step continuity errors : sum local = 6.07926498689e-13, global = -9.13189358366e-15, cumulative = 3.45072068013e-09
ExecutionTime = 8.78 s  ClockTime = 8 s

Time = 997

DILUPBiCGStab:  Solving for Ux, Initial residual = 2.46695509623e-14, Final residual = 8.02845100347e-19, No Iterations 3
DILUPBiCGStab:  Solving for Uy, Initial residual = 2.94711346959e-12, Final residual = 1.74385472892e-18, No Iterations 3
DILUPBiCGStab:  Solving for Uz, Initial residual = 0.000731973981789, Final residual = 1.3446446527e-10, No Iterations 3
DICPCG:  Solving for p, Initial residual = 4.26254939436e-12, Final residual = 1.06962241937e-12, No Iterations 3
DICPCG:  Solving for p, Initial residual = 4.87601187022e-12, Final residual = 5.79468162589e-13, No Iterations 3
DICPCG:  Solving for p, Initial residual = 4.47650793108e-12, Final residual = 5.50187318911e-13, No Iterations 3
time step continuity errors : sum local = 6.38713497493e-13, global = -9.6982432919e-15, cumulative = 3.45071098189e-09
ExecutionTime = 8.79 s  ClockTime = 8 s

Time = 998

DILUPBiCGStab:  Solving for Ux, Initial residual = 2.26785364357e-14, Final residual = 4.73628151192e-20, No Iterations 3
DILUPBiCGStab:  Solving for Uy, Initial residual = 2.9148629399e-12, Final residual = 1.43274664976e-18, No Iterations 3
DILUPBiCGStab:  Solving for Uz, Initial residual = 0.000707211261457, Final residual = 5.14581686941e-10, No Iterations 3
DICPCG:  Solving for p, Initial residual = 4.14735328343e-12, Final residual = 4.42827596823e-13, No Iterations 3
DICPCG:  Solving for p, Initial residual = 4.77576303071e-12, Final residual = 1.0719057481e-12, No Iterations 3
DICPCG:  Solving for p, Initial residual = 4.84094754955e-12, Final residual = 1.08638403147e-12, No Iterations 3
time step continuity errors : sum local = 6.12743292926e-13, global = -9.28797925693e-15, cumulative = 3.45070169391e-09
ExecutionTime = 8.8 s  ClockTime = 8 s

Time = 999

DILUPBiCGStab:  Solving for Ux, Initial residual = 2.25194694482e-14, Final residual = 5.37509097866e-20, No Iterations 3
DILUPBiCGStab:  Solving for Uy, Initial residual = 2.87037874937e-12, Final residual = 5.5866331372e-18, No Iterations 3
DILUPBiCGStab:  Solving for Uz, Initial residual = 0.000749862780213, Final residual = 1.40482613792e-10, No Iterations 3
DICPCG:  Solving for p, Initial residual = 4.28500308409e-12, Final residual = 8.81323393417e-13, No Iterations 3
DICPCG:  Solving for p, Initial residual = 4.60765889202e-12, Final residual = 9.5411711791e-13, No Iterations 3
DICPCG:  Solving for p, Initial residual = 4.5513211824e-12, Final residual = 9.55439825247e-13, No Iterations 3
time step continuity errors : sum local = 6.04208740994e-13, global = -8.85846902789e-15, cumulative = 3.45069283544e-09
ExecutionTime = 8.8 s  ClockTime = 8 s

Time = 1000

DILUPBiCGStab:  Solving for Ux, Initial residual = 2.08807707811e-14, Final residual = 5.37678617877e-20, No Iterations 3
DILUPBiCGStab:  Solving for Uy, Initial residual = 2.68309269782e-12, Final residual = 1.49890591489e-18, No Iterations 3
DILUPBiCGStab:  Solving for Uz, Initial residual = 0.000725557775352, Final residual = 1.34172017935e-10, No Iterations 3
DICPCG:  Solving for p, Initial residual = 4.22934651061e-12, Final residual = 1.07261857552e-12, No Iterations 3
DICPCG:  Solving for p, Initial residual = 4.70531918912e-12, Final residual = 1.83579455215e-12, No Iterations 3
DICPCG:  Solving for p, Initial residual = 4.69610808355e-12, Final residual = 7.30432365668e-13, No Iterations 3
time step continuity errors : sum local = 6.20547098092e-13, global = -8.18777412961e-15, cumulative = 3.45068464766e-09
ExecutionTime = 8.82 s  ClockTime = 8 s

End

