/*---------------------------------------------------------------------------*\
| =========                 |                                                 |
| \\      /  F ield         | OpenFOAM: The Open Source CFD Toolbox           |
|  \\    /   O peration     | Version:  2206                                  |
|   \\  /    A nd           | Website:  www.openfoam.com                      |
|    \\/     M anipulation  |                                                 |
\*---------------------------------------------------------------------------*/
Build  : _da9441b0-20260127 OPENFOAM=2206 patch=260127 version=2206
Arch   : "LSB;label=32;scalar=64"
Exec   : simpleFoam
Date   : Jun 12 2026
Time   : 12:55:25
Host   : NotebookdoDan
PID    : 119637
I/O    : uncollated
Case   : /home/danilom/Trabalho_Modelagem_Turbulencia/GT2/RANS/KOmegaSST_lowRE_V1
nProcs : 1
trapFpe: Floating point exception trapping enabled (FOAM_SIGFPE).
fileModificationChecking : Monitoring run-time modified files using timeStampMaster (fileModificationSkew 5, maxFileModificationPolls 20)
allowSystemOperations : Allowing user-supplied system call operations

// * * * * * * * * * * * * * * * * * * * * * * * * * * * * * * * * * * * * * //
Create time

--> FOAM Warning : 
    From static Foam::IOstreamOption::compressionType Foam::IOstreamOption::compressionEnum(const Foam::word&, compressionType)
    in file db/IOstreams/IOstreams/IOstreamOption.C at line 115
    Unknown compression specifier 'uncompressed', using compression off
Create mesh for time = 0


SIMPLE: convergence criteria
    field p	 tolerance 1e-06
    field U	 tolerance 1e-06
    field "(k|omega)"	 tolerance 1e-06

Reading field p

Reading field U

Reading/calculating face flux field phi

Selecting incompressible transport model Newtonian
Selecting turbulence model type RAS
Selecting RAS turbulence model kOmegaSST
Selecting patchDistMethod meshWave
RAS
{
    RASModel        kOmegaSST;
    turbulence      on;
    printCoeffs     on;
    alphaK1         0.85;
    alphaK2         1;
    alphaOmega1     0.5;
    alphaOmega2     0.856;
    gamma1          0.55555556;
    gamma2          0.44;
    beta1           0.075;
    beta2           0.0828;
    betaStar        0.09;
    a1              0.31;
    b1              1;
    c1              10;
    F3              false;
    decayControl    false;
    kInf            0;
    omegaInf        0;
}

No MRF models present

No finite volume options present

Starting time loop

Time = 1

DILUPBiCGStab:  Solving for Ux, Initial residual = 1, Final residual = 1.1575677e-14, No Iterations 3
DILUPBiCGStab:  Solving for Uy, Initial residual = 1, Final residual = 8.0989689e-15, No Iterations 3
DICPCG:  Solving for p, Initial residual = 1, Final residual = 0.0098558015, No Iterations 91
DICPCG:  Solving for p, Initial residual = 1.8512514e-05, Final residual = 1.7939576e-07, No Iterations 21
DICPCG:  Solving for p, Initial residual = 1.7939867e-07, Final residual = 9.6027996e-09, No Iterations 28
time step continuity errors : sum local = 9.8849452e-12, global = -1.4100617e-12, cumulative = -1.4100617e-12
DILUPBiCGStab:  Solving for omega, Initial residual = 0.015537083, Final residual = 6.7632638e-17, No Iterations 3
DILUPBiCGStab:  Solving for k, Initial residual = 1, Final residual = 1.026051e-10, No Iterations 3
ExecutionTime = 0.1 s  ClockTime = 0 s

volFieldValue minmaxdomain_scalar write:

volFieldValue minmaxdomain_vector write:

volFieldValue mindomain_scalar write:
    min(region0) of p = 2.5279491e-07
    min(region0) of k = 5.5494199e-05
    min(region0) of omega = 191.86404
    min(region0) of nut = 1.4259411e-13

volFieldValue mindomain_vector write:
    min(region0) of U = (0.2592075 -7.8757527e-11 -8.2498789e-16)

volFieldValue maxdomain_scalar write:
    max(region0) of p = 0.010319856
    max(region0) of k = 0.00048773832
    max(region0) of omega = 1.1944345e+09
    max(region0) of nut = 3.0439407e-07

volFieldValue maxdomain_vector write:
    max(region0) of U = (1.0001839 0.00056573383 1.3802201e-15)

Time = 2

DILUPBiCGStab:  Solving for Ux, Initial residual = 0.1145211, Final residual = 2.1272951e-10, No Iterations 3
DILUPBiCGStab:  Solving for Uy, Initial residual = 0.094432994, Final residual = 9.9027323e-09, No Iterations 7
DICPCG:  Solving for p, Initial residual = 0.011132156, Final residual = 0.00010869201, No Iterations 85
DICPCG:  Solving for p, Initial residual = 0.00014537382, Final residual = 1.4362281e-06, No Iterations 41
DICPCG:  Solving for p, Initial residual = 1.4361375e-06, Final residual = 1.2606079e-08, No Iterations 77
time step continuity errors : sum local = 9.7998461e-12, global = -8.1508138e-15, cumulative = -1.4182125e-12
DILUPBiCGStab:  Solving for omega, Initial residual = 0.10608904, Final residual = 5.0437212e-17, No Iterations 3
DILUPBiCGStab:  Solving for k, Initial residual = 0.02919747, Final residual = 4.9560262e-11, No Iterations 3
ExecutionTime = 0.15 s  ClockTime = 0 s

volFieldValue minmaxdomain_scalar write:

volFieldValue minmaxdomain_vector write:

volFieldValue mindomain_scalar write:
    min(region0) of p = -6.0244711e-05
    min(region0) of k = 2.5964243e-05
    min(region0) of omega = 73.176474
    min(region0) of nut = 3.950652e-13

volFieldValue mindomain_vector write:
    min(region0) of U = (0.1256855 -8.828581e-08 -3.1771421e-17)

volFieldValue maxdomain_scalar write:
    max(region0) of p = 0.0075491347
    max(region0) of k = 0.00049812221
    max(region0) of omega = 1.1944345e+09
    max(region0) of nut = 4.1101423e-07

volFieldValue maxdomain_vector write:
    max(region0) of U = (1.0003415 0.0009555887 7.760262e-16)

Time = 3

DILUPBiCGStab:  Solving for Ux, Initial residual = 0.048306678, Final residual = 1.8300651e-10, No Iterations 3
DILUPBiCGStab:  Solving for Uy, Initial residual = 0.03848819, Final residual = 3.7676586e-09, No Iterations 7
DICPCG:  Solving for p, Initial residual = 0.016118183, Final residual = 0.00015033173, No Iterations 83
DICPCG:  Solving for p, Initial residual = 0.00016532278, Final residual = 1.4905016e-06, No Iterations 68
DICPCG:  Solving for p, Initial residual = 1.4908571e-06, Final residual = 1.4121256e-08, No Iterations 72
time step continuity errors : sum local = 1.0101551e-11, global = -2.2820862e-14, cumulative = -1.4410334e-12
DILUPBiCGStab:  Solving for omega, Initial residual = 0.0026368786, Final residual = 5.2787346e-17, No Iterations 3
DILUPBiCGStab:  Solving for k, Initial residual = 0.16308587, Final residual = 4.5346922e-11, No Iterations 3
ExecutionTime = 0.2 s  ClockTime = 0 s

volFieldValue minmaxdomain_scalar write:

volFieldValue minmaxdomain_vector write:

volFieldValue mindomain_scalar write:
    min(region0) of p = -0.00027810136
    min(region0) of k = 1.6526392e-05
    min(region0) of omega = 40.082835
    min(region0) of nut = 3.1409122e-13

volFieldValue mindomain_vector write:
    min(region0) of U = (0.086405287 -2.2272785e-07 -3.2428417e-16)

volFieldValue maxdomain_scalar write:
    max(region0) of p = 0.0063639557
    max(region0) of k = 0.00037818659
    max(region0) of omega = 1.1944345e+09
    max(region0) of nut = 4.8390466e-07

volFieldValue maxdomain_vector write:
    max(region0) of U = (1.0004751 0.001322193 5.5287691e-16)

Time = 4

DILUPBiCGStab:  Solving for Ux, Initial residual = 0.031001445, Final residual = 1.87426e-10, No Iterations 3
DILUPBiCGStab:  Solving for Uy, Initial residual = 0.025727529, Final residual = 7.4951843e-09, No Iterations 6
DICPCG:  Solving for p, Initial residual = 0.018625275, Final residual = 0.00017311709, No Iterations 83
DICPCG:  Solving for p, Initial residual = 0.00016979949, Final residual = 1.548809e-06, No Iterations 68
DICPCG:  Solving for p, Initial residual = 1.5484415e-06, Final residual = 1.2649261e-08, No Iterations 76
time step continuity errors : sum local = 9.3549614e-12, global = -3.5821636e-13, cumulative = -1.7992497e-12
DILUPBiCGStab:  Solving for omega, Initial residual = 0.00052557968, Final residual = 4.4285699e-17, No Iterations 3
DILUPBiCGStab:  Solving for k, Initial residual = 0.20476667, Final residual = 5.3860407e-11, No Iterations 3
ExecutionTime = 0.26 s  ClockTime = 0 s

volFieldValue minmaxdomain_scalar write:

volFieldValue minmaxdomain_vector write:

volFieldValue mindomain_scalar write:
    min(region0) of p = -0.00053729009
    min(region0) of k = 1.1196992e-05
    min(region0) of omega = 26.745604
    min(region0) of nut = 2.2380626e-13

volFieldValue mindomain_vector write:
    min(region0) of U = (0.068297271 -4.1415743e-07 -1.3332955e-17)

volFieldValue maxdomain_scalar write:
    max(region0) of p = 0.0059000554
    max(region0) of k = 0.00026761907
    max(region0) of omega = 1.1944345e+09
    max(region0) of nut = 5.2219332e-07

volFieldValue maxdomain_vector write:
    max(region0) of U = (1.0006583 0.0016979019 3.9785513e-16)

Time = 5

DILUPBiCGStab:  Solving for Ux, Initial residual = 0.023411709, Final residual = 1.8436573e-10, No Iterations 3
DILUPBiCGStab:  Solving for Uy, Initial residual = 0.020470653, Final residual = 1.6153765e-09, No Iterations 7
DICPCG:  Solving for p, Initial residual = 0.019153049, Final residual = 0.00013966877, No Iterations 80
DICPCG:  Solving for p, Initial residual = 0.00013244451, Final residual = 1.2277798e-06, No Iterations 64
DICPCG:  Solving for p, Initial residual = 1.2277571e-06, Final residual = 1.1642346e-08, No Iterations 74
time step continuity errors : sum local = 9.2182065e-12, global = -3.6153546e-13, cumulative = -2.1607852e-12
DILUPBiCGStab:  Solving for omega, Initial residual = 0.00016016225, Final residual = 3.5798475e-17, No Iterations 3
DILUPBiCGStab:  Solving for k, Initial residual = 0.2118151, Final residual = 6.7391064e-11, No Iterations 3
ExecutionTime = 0.31 s  ClockTime = 0 s

volFieldValue minmaxdomain_scalar write:

volFieldValue minmaxdomain_vector write:

volFieldValue mindomain_scalar write:
    min(region0) of p = -0.00083362641
    min(region0) of k = 7.6662213e-06
    min(region0) of omega = 19.863243
    min(region0) of nut = 1.5823899e-13

volFieldValue mindomain_vector write:
    min(region0) of U = (0.05740273 -5.9366388e-07 -1.8825282e-17)

volFieldValue maxdomain_scalar write:
    max(region0) of p = 0.0058158923
    max(region0) of k = 0.00018931035
    max(region0) of omega = 1.1944345e+09
    max(region0) of nut = 5.4725029e-07

volFieldValue maxdomain_vector write:
    max(region0) of U = (1.0007898 0.0020998077 3.0024676e-16)

Time = 6

DILUPBiCGStab:  Solving for Ux, Initial residual = 0.019011389, Final residual = 1.7702963e-10, No Iterations 3
DILUPBiCGStab:  Solving for Uy, Initial residual = 0.016677253, Final residual = 5.6111615e-09, No Iterations 6
DICPCG:  Solving for p, Initial residual = 0.018952742, Final residual = 0.00018030739, No Iterations 80
DICPCG:  Solving for p, Initial residual = 0.00016844597, Final residual = 1.5398166e-06, No Iterations 76
DICPCG:  Solving for p, Initial residual = 1.5391398e-06, Final residual = 1.2858607e-08, No Iterations 74
time step continuity errors : sum local = 1.1071416e-11, global = -7.937913e-14, cumulative = -2.2401643e-12
DILUPBiCGStab:  Solving for omega, Initial residual = 6.0414061e-05, Final residual = 3.0398374e-17, No Iterations 3
DILUPBiCGStab:  Solving for k, Initial residual = 0.20593398, Final residual = 8.35282e-11, No Iterations 3
ExecutionTime = 0.36 s  ClockTime = 0 s

volFieldValue minmaxdomain_scalar write:

volFieldValue minmaxdomain_vector write:

volFieldValue mindomain_scalar write:
    min(region0) of p = -0.0011619268
    min(region0) of k = 5.3690243e-06
    min(region0) of omega = 15.751309
    min(region0) of nut = 1.1453131e-13

volFieldValue mindomain_vector write:
    min(region0) of U = (0.049866036 -1.0556292e-06 -2.448343e-17)

volFieldValue maxdomain_scalar write:
    max(region0) of p = 0.005948953
    max(region0) of k = 0.00014995337
    max(region0) of omega = 1.1944345e+09
    max(region0) of nut = 5.6144674e-07

volFieldValue maxdomain_vector write:
    max(region0) of U = (1.0009056 0.0025374265 2.384614e-16)

Time = 7

DILUPBiCGStab:  Solving for Ux, Initial residual = 0.016062939, Final residual = 1.7110395e-10, No Iterations 3
DILUPBiCGStab:  Solving for Uy, Initial residual = 0.014308013, Final residual = 5.3869949e-09, No Iterations 6
DICPCG:  Solving for p, Initial residual = 0.018420882, Final residual = 0.00016076471, No Iterations 85
DICPCG:  Solving for p, Initial residual = 0.00014828688, Final residual = 1.4554902e-06, No Iterations 45
DICPCG:  Solving for p, Initial residual = 1.4553358e-06, Final residual = 1.3525706e-08, No Iterations 70
time step continuity errors : sum local = 1.2819759e-11, global = 1.5175138e-13, cumulative = -2.0884129e-12
DILUPBiCGStab:  Solving for omega, Initial residual = 2.1448774e-05, Final residual = 2.7121354e-17, No Iterations 3
DILUPBiCGStab:  Solving for k, Initial residual = 0.19576618, Final residual = 9.8441345e-11, No Iterations 3
ExecutionTime = 0.4 s  ClockTime = 0 s

volFieldValue minmaxdomain_scalar write:

volFieldValue minmaxdomain_vector write:

volFieldValue mindomain_scalar write:
    min(region0) of p = -0.0015184033
    min(region0) of k = 3.8275731e-06
    min(region0) of omega = 13.071884
    min(region0) of nut = 8.5432726e-14

volFieldValue mindomain_vector write:
    min(region0) of U = (0.044223748 -1.6862118e-06 -3.0203975e-17)

volFieldValue maxdomain_scalar write:
    max(region0) of p = 0.0062243288
    max(region0) of k = 0.00014994404
    max(region0) of omega = 1.1944345e+09
    max(region0) of nut = 5.675028e-07

volFieldValue maxdomain_vector write:
    max(region0) of U = (1.0011159 0.0030172935 1.9759564e-16)

Time = 8

DILUPBiCGStab:  Solving for Ux, Initial residual = 0.013919621, Final residual = 1.7850715e-10, No Iterations 3
DILUPBiCGStab:  Solving for Uy, Initial residual = 0.012609824, Final residual = 4.6358064e-09, No Iterations 6
DICPCG:  Solving for p, Initial residual = 0.017737873, Final residual = 0.00016273261, No Iterations 85
DICPCG:  Solving for p, Initial residual = 0.00014883036, Final residual = 1.3745701e-06, No Iterations 45
DICPCG:  Solving for p, Initial residual = 1.3744344e-06, Final residual = 1.1505292e-08, No Iterations 70
time step continuity errors : sum local = 1.2103176e-11, global = -4.6724212e-14, cumulative = -2.1351372e-12
DILUPBiCGStab:  Solving for omega, Initial residual = 1.091484e-05, Final residual = 2.43465e-17, No Iterations 3
DILUPBiCGStab:  Solving for k, Initial residual = 0.18456681, Final residual = 1.0703224e-10, No Iterations 3
ExecutionTime = 0.45 s  ClockTime = 0 s

volFieldValue minmaxdomain_scalar write:

volFieldValue minmaxdomain_vector write:

volFieldValue mindomain_scalar write:
    min(region0) of p = -0.0019030263
    min(region0) of k = 2.7784996e-06
    min(region0) of omega = 11.238599
    min(region0) of nut = 6.5659635e-14

volFieldValue mindomain_vector write:
    min(region0) of U = (0.039783015 -2.479587e-06 -3.0711371e-17)

volFieldValue maxdomain_scalar write:
    max(region0) of p = 0.0066057804
    max(region0) of k = 0.00014993415
    max(region0) of omega = 1.1944345e+09
    max(region0) of nut = 5.6591816e-07

volFieldValue maxdomain_vector write:
    max(region0) of U = (1.0013062 0.0035449877 1.6894201e-16)

Time = 9

DILUPBiCGStab:  Solving for Ux, Initial residual = 0.01227739, Final residual = 2.0108688e-10, No Iterations 3
DILUPBiCGStab:  Solving for Uy, Initial residual = 0.011471087, Final residual = 4.3306372e-09, No Iterations 6
DICPCG:  Solving for p, Initial residual = 0.017011504, Final residual = 0.0001575692, No Iterations 85
DICPCG:  Solving for p, Initial residual = 0.00014328097, Final residual = 1.2839071e-06, No Iterations 45
DICPCG:  Solving for p, Initial residual = 1.2837825e-06, Final residual = 1.2633279e-08, No Iterations 57
time step continuity errors : sum local = 1.483055e-11, global = 8.9576994e-13, cumulative = -1.2393672e-12
DILUPBiCGStab:  Solving for omega, Initial residual = 9.2337232e-07, Final residual = 2.1502734e-17, No Iterations 3
DILUPBiCGStab:  Solving for k, Initial residual = 0.17380114, Final residual = 1.1831809e-10, No Iterations 3
ExecutionTime = 0.5 s  ClockTime = 0 s

volFieldValue minmaxdomain_scalar write:

volFieldValue minmaxdomain_vector write:

volFieldValue mindomain_scalar write:
    min(region0) of p = -0.0023159902
    min(region0) of k = 2.0545477e-06
    min(region0) of omega = 9.953602
    min(region0) of nut = 5.183727e-14

volFieldValue mindomain_vector write:
    min(region0) of U = (0.03616509 -3.3675371e-06 -2.9548748e-17)

volFieldValue maxdomain_scalar write:
    max(region0) of p = 0.0070752429
    max(region0) of k = 0.00014992366
    max(region0) of omega = 1.1944345e+09
    max(region0) of nut = 5.567431e-07

volFieldValue maxdomain_vector write:
    max(region0) of U = (1.0014041 0.0041226995 1.4760692e-16)

Time = 10

DILUPBiCGStab:  Solving for Ux, Initial residual = 0.010971857, Final residual = 2.3773696e-10, No Iterations 3
DILUPBiCGStab:  Solving for Uy, Initial residual = 0.010626041, Final residual = 4.2522021e-09, No Iterations 6
DICPCG:  Solving for p, Initial residual = 0.016233832, Final residual = 0.00015238483, No Iterations 85
DICPCG:  Solving for p, Initial residual = 0.00013806101, Final residual = 1.3460731e-06, No Iterations 44
DICPCG:  Solving for p, Initial residual = 1.3459443e-06, Final residual = 1.2085468e-08, No Iterations 74
time step continuity errors : sum local = 1.5883609e-11, global = 6.2459389e-14, cumulative = -1.1769078e-12
DILUPBiCGStab:  Solving for omega, Initial residual = 3.716059e-06, Final residual = 1.8533754e-17, No Iterations 3
DILUPBiCGStab:  Solving for k, Initial residual = 0.16386565, Final residual = 1.3784895e-10, No Iterations 3
ExecutionTime = 0.55 s  ClockTime = 0 s

volFieldValue minmaxdomain_scalar write:

volFieldValue minmaxdomain_vector write:

volFieldValue mindomain_scalar write:
    min(region0) of p = -0.0027567453
    min(region0) of k = 1.5479167e-06
    min(region0) of omega = 9.0435204
    min(region0) of nut = 4.1880166e-14

volFieldValue mindomain_vector write:
    min(region0) of U = (0.033141887 -4.2149234e-06 -3.2913798e-17)

volFieldValue maxdomain_scalar write:
    max(region0) of p = 0.0076235347
    max(region0) of k = 0.00014991259
    max(region0) of omega = 1.1944345e+09
    max(region0) of nut = 5.4233303e-07

volFieldValue maxdomain_vector write:
    max(region0) of U = (1.0016583 0.0047527384 1.3087762e-16)

Time = 11

DILUPBiCGStab:  Solving for Ux, Initial residual = 0.0099052938, Final residual = 2.9005547e-10, No Iterations 3
DILUPBiCGStab:  Solving for Uy, Initial residual = 0.01001484, Final residual = 3.6755022e-09, No Iterations 6
DICPCG:  Solving for p, Initial residual = 0.015461971, Final residual = 0.00014846539, No Iterations 85
DICPCG:  Solving for p, Initial residual = 0.00013419522, Final residual = 1.2974278e-06, No Iterations 44
DICPCG:  Solving for p, Initial residual = 1.2973056e-06, Final residual = 1.2306632e-08, No Iterations 74
time step continuity errors : sum local = 1.8142663e-11, global = 9.1962524e-14, cumulative = -1.0849453e-12
DILUPBiCGStab:  Solving for omega, Initial residual = 1.9398242e-06, Final residual = 1.5906584e-17, No Iterations 3
DILUPBiCGStab:  Solving for k, Initial residual = 0.15478938, Final residual = 1.5959766e-10, No Iterations 3
ExecutionTime = 0.6 s  ClockTime = 0 s

volFieldValue minmaxdomain_scalar write:

volFieldValue minmaxdomain_vector write:

volFieldValue mindomain_scalar write:
    min(region0) of p = -0.0032248773
    min(region0) of k = 1.1876868e-06
    min(region0) of omega = 8.3947342
    min(region0) of nut = 3.4401671e-14

volFieldValue mindomain_vector write:
    min(region0) of U = (0.030566208 -4.8986682e-06 -3.651575e-17)

volFieldValue maxdomain_scalar write:
    max(region0) of p = 0.0082464757
    max(region0) of k = 0.00014990096
    max(region0) of omega = 1.1944345e+09
    max(region0) of nut = 5.2318488e-07

volFieldValue maxdomain_vector write:
    max(region0) of U = (1.0018801 0.0054359388 1.1723692e-16)

Time = 12

DILUPBiCGStab:  Solving for Ux, Initial residual = 0.0090153444, Final residual = 3.5091174e-10, No Iterations 3
DILUPBiCGStab:  Solving for Uy, Initial residual = 0.0095237806, Final residual = 3.3887803e-09, No Iterations 6
DICPCG:  Solving for p, Initial residual = 0.01470804, Final residual = 0.00014435636, No Iterations 85
DICPCG:  Solving for p, Initial residual = 0.00013032632, Final residual = 1.2770465e-06, No Iterations 44
DICPCG:  Solving for p, Initial residual = 1.2769252e-06, Final residual = 1.2077471e-08, No Iterations 74
time step continuity errors : sum local = 1.9987817e-11, global = 1.9978333e-13, cumulative = -8.8516197e-13
DILUPBiCGStab:  Solving for omega, Initial residual = 6.0882241e-06, Final residual = 1.4090947e-17, No Iterations 3
DILUPBiCGStab:  Solving for k, Initial residual = 0.14650752, Final residual = 1.7864819e-10, No Iterations 3
ExecutionTime = 0.64 s  ClockTime = 1 s

volFieldValue minmaxdomain_scalar write:

volFieldValue minmaxdomain_vector write:

volFieldValue mindomain_scalar write:
    min(region0) of p = -0.0037192394
    min(region0) of k = 9.283295e-07
    min(region0) of omega = 7.9270911
    min(region0) of nut = 2.8613623e-14

volFieldValue mindomain_vector write:
    min(region0) of U = (0.028337976 -5.4159082e-06 -4.041813e-17)

volFieldValue maxdomain_scalar write:
    max(region0) of p = 0.0089410704
    max(region0) of k = 0.00014988863
    max(region0) of omega = 1.1944345e+09
    max(region0) of nut = 5.0055339e-07

volFieldValue maxdomain_vector write:
    max(region0) of U = (1.0021106 0.0061696438 1.0580878e-16)

Time = 13

DILUPBiCGStab:  Solving for Ux, Initial residual = 0.0082601755, Final residual = 4.2075463e-10, No Iterations 3
DILUPBiCGStab:  Solving for Uy, Initial residual = 0.0091224644, Final residual = 3.2459405e-09, No Iterations 6
DICPCG:  Solving for p, Initial residual = 0.013995006, Final residual = 9.8633076e-05, No Iterations 86
DICPCG:  Solving for p, Initial residual = 8.9026515e-05, Final residual = 8.1445415e-07, No Iterations 44
DICPCG:  Solving for p, Initial residual = 8.1439118e-07, Final residual = 8.7201263e-09, No Iterations 75
time step continuity errors : sum local = 1.6197518e-11, global = 3.7040409e-13, cumulative = -5.1475789e-13
DILUPBiCGStab:  Solving for omega, Initial residual = 1.0759877e-05, Final residual = 1.259503e-17, No Iterations 3
DILUPBiCGStab:  Solving for k, Initial residual = 0.13893347, Final residual = 1.9420886e-10, No Iterations 3
ExecutionTime = 0.69 s  ClockTime = 1 s

volFieldValue minmaxdomain_scalar write:

volFieldValue minmaxdomain_vector write:

volFieldValue mindomain_scalar write:
    min(region0) of p = -0.0042375621
    min(region0) of k = 7.3917232e-07
    min(region0) of omega = 7.5829997
    min(region0) of nut = 2.4149034e-14

volFieldValue mindomain_vector write:
    min(region0) of U = (0.026386315 -5.6551539e-06 -4.439526e-17)

volFieldValue maxdomain_scalar write:
    max(region0) of p = 0.0097043947
    max(region0) of k = 0.00014987555
    max(region0) of omega = 1.1944345e+09
    max(region0) of nut = 4.7633358e-07

volFieldValue maxdomain_vector write:
    max(region0) of U = (1.0023548 0.006951336 9.6059828e-17)

Time = 14

DILUPBiCGStab:  Solving for Ux, Initial residual = 0.0076106201, Final residual = 4.9675291e-10, No Iterations 3
DILUPBiCGStab:  Solving for Uy, Initial residual = 0.0087557269, Final residual = 3.3335071e-09, No Iterations 6
DICPCG:  Solving for p, Initial residual = 0.013314065, Final residual = 9.484926e-05, No Iterations 86
DICPCG:  Solving for p, Initial residual = 8.5666542e-05, Final residual = 7.7701424e-07, No Iterations 44
DICPCG:  Solving for p, Initial residual = 7.7695523e-07, Final residual = 9.4021335e-09, No Iterations 74
time step continuity errors : sum local = 1.9580263e-11, global = 6.8522348e-13, cumulative = 1.7046559e-13
DILUPBiCGStab:  Solving for omega, Initial residual = 7.6467732e-06, Final residual = 1.1382129e-17, No Iterations 3
DILUPBiCGStab:  Solving for k, Initial residual = 0.12338557, Final residual = 1.9337912e-10, No Iterations 3
ExecutionTime = 0.74 s  ClockTime = 1 s

volFieldValue minmaxdomain_scalar write:

volFieldValue minmaxdomain_vector write:

volFieldValue mindomain_scalar write:
    min(region0) of p = -0.0047771178
    min(region0) of k = 5.9759669e-07
    min(region0) of omega = 7.3219903
    min(region0) of nut = 2.062798e-14

volFieldValue mindomain_vector write:
    min(region0) of U = (0.024659349 -5.6054191e-06 -4.8534389e-17)

volFieldValue maxdomain_scalar write:
    max(region0) of p = 0.010532923
    max(region0) of k = 0.00014986169
    max(region0) of omega = 1.1944345e+09
    max(region0) of nut = 4.5220516e-07

volFieldValue maxdomain_vector write:
    max(region0) of U = (1.0026075 0.0077801403 8.7643138e-17)

Time = 15

DILUPBiCGStab:  Solving for Ux, Initial residual = 0.0070454939, Final residual = 5.7837687e-10, No Iterations 3
DILUPBiCGStab:  Solving for Uy, Initial residual = 0.0084306314, Final residual = 3.5738236e-09, No Iterations 6
DICPCG:  Solving for p, Initial residual = 0.012626093, Final residual = 9.1047599e-05, No Iterations 86
DICPCG:  Solving for p, Initial residual = 8.2345768e-05, Final residual = 7.3937714e-07, No Iterations 44
DICPCG:  Solving for p, Initial residual = 7.3932409e-07, Final residual = 8.6049715e-09, No Iterations 74
time step continuity errors : sum local = 2.0054464e-11, global = 7.0388781e-13, cumulative = 8.743534e-13
DILUPBiCGStab:  Solving for omega, Initial residual = 3.98439e-06, Final residual = 1.0530281e-17, No Iterations 3
DILUPBiCGStab:  Solving for k, Initial residual = 0.10741979, Final residual = 1.8541333e-10, No Iterations 3
ExecutionTime = 0.78 s  ClockTime = 1 s

volFieldValue minmaxdomain_scalar write:

volFieldValue minmaxdomain_vector write:

volFieldValue mindomain_scalar write:
    min(region0) of p = -0.0053341053
    min(region0) of k = 4.8922861e-07
    min(region0) of omega = 7.1167586
    min(region0) of nut = 1.779804e-14

volFieldValue mindomain_vector write:
    min(region0) of U = (0.023118066 -5.3752818e-06 -5.2762074e-17)

volFieldValue maxdomain_scalar write:
    max(region0) of p = 0.011422188
    max(region0) of k = 0.00014984701
    max(region0) of omega = 1.1944345e+09
    max(region0) of nut = 4.2927152e-07

volFieldValue maxdomain_vector write:
    max(region0) of U = (1.0028174 0.0086470764 8.0316488e-17)

Time = 16

DILUPBiCGStab:  Solving for Ux, Initial residual = 0.0065490471, Final residual = 6.6099492e-10, No Iterations 3
DILUPBiCGStab:  Solving for Uy, Initial residual = 0.0081277191, Final residual = 3.8162049e-09, No Iterations 6
DICPCG:  Solving for p, Initial residual = 0.011961003, Final residual = 8.678713e-05, No Iterations 86
DICPCG:  Solving for p, Initial residual = 7.8645292e-05, Final residual = 7.0258508e-07, No Iterations 44
DICPCG:  Solving for p, Initial residual = 7.0253604e-07, Final residual = 9.6059044e-09, No Iterations 73
time step continuity errors : sum local = 2.4991271e-11, global = 1.0273628e-12, cumulative = 1.9017162e-12
DILUPBiCGStab:  Solving for omega, Initial residual = 2.2001858e-06, Final residual = 9.7464971e-18, No Iterations 3
DILUPBiCGStab:  Solving for k, Initial residual = 0.090482933, Final residual = 1.6954945e-10, No Iterations 3
ExecutionTime = 0.83 s  ClockTime = 1 s

volFieldValue minmaxdomain_scalar write:

volFieldValue minmaxdomain_vector write:

volFieldValue mindomain_scalar write:
    min(region0) of p = -0.0059045641
    min(region0) of k = 4.0494485e-07
    min(region0) of omega = 6.9496016
    min(region0) of nut = 1.5486398e-14

volFieldValue mindomain_vector write:
    min(region0) of U = (0.021732451 -4.9416191e-06 -5.6975196e-17)

volFieldValue maxdomain_scalar write:
    max(region0) of p = 0.012367158
    max(region0) of k = 0.00014983146
    max(region0) of omega = 1.1944345e+09
    max(region0) of nut = 4.0809031e-07

volFieldValue maxdomain_vector write:
    max(region0) of U = (1.0030421 0.0095468755 7.3899809e-17)

Time = 17

DILUPBiCGStab:  Solving for Ux, Initial residual = 0.0061090959, Final residual = 7.4503396e-10, No Iterations 3
DILUPBiCGStab:  Solving for Uy, Initial residual = 0.0078412791, Final residual = 3.5574329e-09, No Iterations 6
DICPCG:  Solving for p, Initial residual = 0.011300105, Final residual = 0.00011192973, No Iterations 85
DICPCG:  Solving for p, Initial residual = 0.00010166928, Final residual = 9.7947762e-07, No Iterations 43
DICPCG:  Solving for p, Initial residual = 9.7940465e-07, Final residual = 9.1985256e-09, No Iterations 74
time step continuity errors : sum local = 2.6634777e-11, global = 1.7339941e-13, cumulative = 2.0751156e-12
DILUPBiCGStab:  Solving for omega, Initial residual = 1.3912203e-06, Final residual = 8.8747409e-18, No Iterations 3
DILUPBiCGStab:  Solving for k, Initial residual = 0.073896323, Final residual = 1.4863993e-10, No Iterations 3
ExecutionTime = 0.88 s  ClockTime = 1 s

volFieldValue minmaxdomain_scalar write:

volFieldValue minmaxdomain_vector write:

volFieldValue mindomain_scalar write:
    min(region0) of p = -0.0064842122
    min(region0) of k = 3.3854775e-07
    min(region0) of omega = 6.8093055
    min(region0) of nut = 1.3571747e-14

volFieldValue mindomain_vector write:
    min(region0) of U = (0.020478962 -4.3437129e-06 -6.1105962e-17)

volFieldValue maxdomain_scalar write:
    max(region0) of p = 0.013362897
    max(region0) of k = 0.00014981501
    max(region0) of omega = 1.1944345e+09
    max(region0) of nut = 3.8883865e-07

volFieldValue maxdomain_vector write:
    max(region0) of U = (1.0032963 0.0104827 6.8252685e-17)

Time = 18

DILUPBiCGStab:  Solving for Ux, Initial residual = 0.0057165227, Final residual = 8.3225298e-10, No Iterations 3
DILUPBiCGStab:  Solving for Uy, Initial residual = 0.0075598096, Final residual = 3.5059571e-09, No Iterations 6
DICPCG:  Solving for p, Initial residual = 0.010664575, Final residual = 7.7861524e-05, No Iterations 86
DICPCG:  Solving for p, Initial residual = 7.0907375e-05, Final residual = 7.0679819e-07, No Iterations 43
DICPCG:  Solving for p, Initial residual = 7.0675441e-07, Final residual = 7.4230258e-09, No Iterations 73
time step continuity errors : sum local = 2.384561e-11, global = -3.4556159e-13, cumulative = 1.729554e-12
DILUPBiCGStab:  Solving for omega, Initial residual = 9.7740152e-07, Final residual = 7.974962e-18, No Iterations 3
DILUPBiCGStab:  Solving for k, Initial residual = 0.061343336, Final residual = 1.3134683e-10, No Iterations 3
ExecutionTime = 0.92 s  ClockTime = 1 s

volFieldValue minmaxdomain_scalar write:

volFieldValue minmaxdomain_vector write:

volFieldValue mindomain_scalar write:
    min(region0) of p = -0.0070674717
    min(region0) of k = 2.856434e-07
    min(region0) of omega = 6.6887283
    min(region0) of nut = 1.1966942e-14

volFieldValue mindomain_vector write:
    min(region0) of U = (0.01933882 -3.7736063e-06 -6.5217045e-17)

volFieldValue maxdomain_scalar write:
    max(region0) of p = 0.01440393
    max(region0) of k = 0.00014979762
    max(region0) of omega = 1.1944345e+09
    max(region0) of nut = 3.7153311e-07

volFieldValue maxdomain_vector write:
    max(region0) of U = (1.0035485 0.011442811 6.3261909e-17)

Time = 19

DILUPBiCGStab:  Solving for Ux, Initial residual = 0.0053640806, Final residual = 9.1993049e-10, No Iterations 3
DILUPBiCGStab:  Solving for Uy, Initial residual = 0.0072893294, Final residual = 3.0812743e-09, No Iterations 6
DICPCG:  Solving for p, Initial residual = 0.010057541, Final residual = 7.2958504e-05, No Iterations 86
DICPCG:  Solving for p, Initial residual = 6.6622847e-05, Final residual = 6.5578803e-07, No Iterations 43
DICPCG:  Solving for p, Initial residual = 6.5574869e-07, Final residual = 9.9686619e-09, No Iterations 72
time step continuity errors : sum local = 3.5410474e-11, global = -5.6248932e-14, cumulative = 1.673305e-12
DILUPBiCGStab:  Solving for omega, Initial residual = 7.286137e-07, Final residual = 7.0915174e-18, No Iterations 3
DILUPBiCGStab:  Solving for k, Initial residual = 0.051531202, Final residual = 1.1685713e-10, No Iterations 3
ExecutionTime = 0.97 s  ClockTime = 1 s

volFieldValue minmaxdomain_scalar write:

volFieldValue minmaxdomain_vector write:

volFieldValue mindomain_scalar write:
    min(region0) of p = -0.0076501164
    min(region0) of k = 2.4192453e-07
    min(region0) of omega = 6.5831462
    min(region0) of nut = 1.0608025e-14

volFieldValue mindomain_vector write:
    min(region0) of U = (0.018296827 -3.2689746e-06 -6.9318509e-17)

volFieldValue maxdomain_scalar write:
    max(region0) of p = 0.015484832
    max(region0) of k = 0.00014977924
    max(region0) of omega = 1.1944345e+09
    max(region0) of nut = 3.5616334e-07

volFieldValue maxdomain_vector write:
    max(region0) of U = (1.0037971 0.012421143 5.8834265e-17)

Time = 20

DILUPBiCGStab:  Solving for Ux, Initial residual = 0.0050458369, Final residual = 1.0022186e-09, No Iterations 3
DILUPBiCGStab:  Solving for Uy, Initial residual = 0.0070283416, Final residual = 9.3189004e-09, No Iterations 6
DICPCG:  Solving for p, Initial residual = 0.0094796206, Final residual = 6.8726774e-05, No Iterations 86
DICPCG:  Solving for p, Initial residual = 6.2931743e-05, Final residual = 6.031506e-07, No Iterations 43
DICPCG:  Solving for p, Initial residual = 6.0311601e-07, Final residual = 9.280539e-09, No Iterations 72
time step continuity errors : sum local = 3.633308e-11, global = -2.5243115e-13, cumulative = 1.4208739e-12
DILUPBiCGStab:  Solving for omega, Initial residual = 5.6737622e-07, Final residual = 6.2658365e-18, No Iterations 3
DILUPBiCGStab:  Solving for k, Initial residual = 0.043689739, Final residual = 1.0469699e-10, No Iterations 3
ExecutionTime = 1.01 s  ClockTime = 1 s

volFieldValue minmaxdomain_scalar write:

volFieldValue minmaxdomain_vector write:

volFieldValue mindomain_scalar write:
    min(region0) of p = -0.0082275449
    min(region0) of k = 2.0103673e-07
    min(region0) of omega = 6.4892384
    min(region0) of nut = 9.4471177e-15

volFieldValue mindomain_vector write:
    min(region0) of U = (0.01734053 -3.0772571e-06 -7.3368193e-17)

volFieldValue maxdomain_scalar write:
    max(region0) of p = 0.016600304
    max(region0) of k = 0.00014975986
    max(region0) of omega = 1.1944345e+09
    max(region0) of nut = 3.42462e-07

volFieldValue maxdomain_vector write:
    max(region0) of U = (1.0040387 0.01341263 5.4891941e-17)

Time = 21

DILUPBiCGStab:  Solving for Ux, Initial residual = 0.0047569203, Final residual = 1.0753533e-09, No Iterations 3
DILUPBiCGStab:  Solving for Uy, Initial residual = 0.0067749364, Final residual = 8.4520088e-09, No Iterations 6
DICPCG:  Solving for p, Initial residual = 0.0089173603, Final residual = 8.8625392e-05, No Iterations 85
DICPCG:  Solving for p, Initial residual = 8.1379264e-05, Final residual = 7.5325828e-07, No Iterations 43
DICPCG:  Solving for p, Initial residual = 7.5320871e-07, Final residual = 8.6893839e-09, No Iterations 73
time step continuity errors : sum local = 3.7367675e-11, global = -4.0269625e-13, cumulative = 1.0181776e-12
DILUPBiCGStab:  Solving for omega, Initial residual = 4.5713724e-07, Final residual = 5.5163689e-18, No Iterations 3
DILUPBiCGStab:  Solving for k, Initial residual = 0.037322172, Final residual = 9.4530416e-11, No Iterations 3
ExecutionTime = 1.05 s  ClockTime = 1 s

volFieldValue minmaxdomain_scalar write:

volFieldValue minmaxdomain_vector write:

volFieldValue mindomain_scalar write:
    min(region0) of p = -0.0087944005
    min(region0) of k = 1.6828007e-07
    min(region0) of omega = 6.4045117
    min(region0) of nut = 8.4477301e-15

volFieldValue mindomain_vector write:
    min(region0) of U = (0.016459602 -2.7939431e-06 -7.7252195e-17)

volFieldValue maxdomain_scalar write:
    max(region0) of p = 0.017744025
    max(region0) of k = 0.00014973943
    max(region0) of omega = 1.1944345e+09
    max(region0) of nut = 3.3032603e-07

volFieldValue maxdomain_vector write:
    max(region0) of U = (1.0042721 0.014412899 5.1369441e-17)

Time = 22

DILUPBiCGStab:  Solving for Ux, Initial residual = 0.0044936243, Final residual = 1.1460514e-09, No Iterations 3
DILUPBiCGStab:  Solving for Uy, Initial residual = 0.0065244259, Final residual = 8.0340489e-09, No Iterations 6
DICPCG:  Solving for p, Initial residual = 0.0083802526, Final residual = 8.0805078e-05, No Iterations 85
DICPCG:  Solving for p, Initial residual = 7.440103e-05, Final residual = 7.2638836e-07, No Iterations 41
DICPCG:  Solving for p, Initial residual = 7.2634124e-07, Final residual = 9.3656496e-09, No Iterations 69
time step continuity errors : sum local = 4.4097355e-11, global = 3.4716931e-12, cumulative = 4.4898708e-12
DILUPBiCGStab:  Solving for omega, Initial residual = 3.7810368e-07, Final residual = 4.8344651e-18, No Iterations 3
DILUPBiCGStab:  Solving for k, Initial residual = 0.032095287, Final residual = 8.6291805e-11, No Iterations 3
ExecutionTime = 1.1 s  ClockTime = 1 s

volFieldValue minmaxdomain_scalar write:

volFieldValue minmaxdomain_vector write:

volFieldValue mindomain_scalar write:
    min(region0) of p = -0.0093462155
    min(region0) of k = 1.4185289e-07
    min(region0) of omega = 6.3269846
    min(region0) of nut = 7.5747068e-15

volFieldValue mindomain_vector write:
    min(region0) of U = (0.015645398 -2.5214588e-06 -8.1060381e-17)

volFieldValue maxdomain_scalar write:
    max(region0) of p = 0.018909679
    max(region0) of k = 0.00014971791
    max(region0) of omega = 1.1944345e+09
    max(region0) of nut = 3.1967809e-07

volFieldValue maxdomain_vector write:
    max(region0) of U = (1.0044903 0.015417305 4.8211321e-17)

Time = 23

DILUPBiCGStab:  Solving for Ux, Initial residual = 0.0042526436, Final residual = 1.2125448e-09, No Iterations 3
DILUPBiCGStab:  Solving for Uy, Initial residual = 0.0062810871, Final residual = 8.1011784e-09, No Iterations 6
DICPCG:  Solving for p, Initial residual = 0.0078753439, Final residual = 7.6036544e-05, No Iterations 85
DICPCG:  Solving for p, Initial residual = 7.0196031e-05, Final residual = 6.9476814e-07, No Iterations 41
DICPCG:  Solving for p, Initial residual = 6.9472647e-07, Final residual = 9.4912212e-09, No Iterations 68
time step continuity errors : sum local = 4.8774655e-11, global = 3.224615e-12, cumulative = 7.7144857e-12
DILUPBiCGStab:  Solving for omega, Initial residual = 1.3386348e-06, Final residual = 4.464965e-18, No Iterations 3
DILUPBiCGStab:  Solving for k, Initial residual = 0.027761243, Final residual = 7.9638318e-11, No Iterations 3
ExecutionTime = 1.14 s  ClockTime = 1 s

volFieldValue minmaxdomain_scalar write:

volFieldValue minmaxdomain_vector write:

volFieldValue mindomain_scalar write:
    min(region0) of p = -0.0098802404
    min(region0) of k = 1.2046159e-07
    min(region0) of omega = 6.2550077
    min(region0) of nut = 6.8052186e-15

volFieldValue mindomain_vector write:
    min(region0) of U = (0.014890613 -2.1774071e-06 -8.483968e-17)

volFieldValue maxdomain_scalar write:
    max(region0) of p = 0.020092339
    max(region0) of k = 0.0001496953
    max(region0) of omega = 1.1944345e+09
    max(region0) of nut = 3.1429535e-07

volFieldValue maxdomain_vector write:
    max(region0) of U = (1.0046918 0.016428138 4.5370453e-17)

Time = 24

DILUPBiCGStab:  Solving for Ux, Initial residual = 0.0040312171, Final residual = 1.2698424e-09, No Iterations 3
DILUPBiCGStab:  Solving for Uy, Initial residual = 0.006045605, Final residual = 9.0946038e-09, No Iterations 6
DICPCG:  Solving for p, Initial residual = 0.0074040415, Final residual = 7.0240221e-05, No Iterations 85
DICPCG:  Solving for p, Initial residual = 6.5011541e-05, Final residual = 6.2540633e-07, No Iterations 41
DICPCG:  Solving for p, Initial residual = 6.2537099e-07, Final residual = 9.2032659e-09, No Iterations 67
time step continuity errors : sum local = 5.1461974e-11, global = 3.5102006e-12, cumulative = 1.1224686e-11
DILUPBiCGStab:  Solving for omega, Initial residual = 3.9214899e-06, Final residual = 4.2643235e-18, No Iterations 3
DILUPBiCGStab:  Solving for k, Initial residual = 0.024138207, Final residual = 7.4212919e-11, No Iterations 3
ExecutionTime = 1.18 s  ClockTime = 1 s

volFieldValue minmaxdomain_scalar write:

volFieldValue minmaxdomain_vector write:

volFieldValue mindomain_scalar write:
    min(region0) of p = -0.010393639
    min(region0) of k = 1.03172e-07
    min(region0) of omega = 6.1871578
    min(region0) of nut = 6.1347969e-15

volFieldValue mindomain_vector write:
    min(region0) of U = (0.014189024 -1.861677e-06 -8.8616747e-17)

volFieldValue maxdomain_scalar write:
    max(region0) of p = 0.02128776
    max(region0) of k = 0.00014967154
    max(region0) of omega = 1.1944345e+09
    max(region0) of nut = 3.1151016e-07

volFieldValue maxdomain_vector write:
    max(region0) of U = (1.0048821 0.017440279 4.5026022e-17)

Time = 25

DILUPBiCGStab:  Solving for Ux, Initial residual = 0.0038271891, Final residual = 1.3166681e-09, No Iterations 3
DILUPBiCGStab:  Solving for Uy, Initial residual = 0.0058193737, Final residual = 3.5045269e-09, No Iterations 6
DICPCG:  Solving for p, Initial residual = 0.0069624119, Final residual = 6.4853627e-05, No Iterations 85
DICPCG:  Solving for p, Initial residual = 6.0176285e-05, Final residual = 6.0124966e-07, No Iterations 39
DICPCG:  Solving for p, Initial residual = 6.0121813e-07, Final residual = 9.9458791e-09, No Iterations 64
time step continuity errors : sum local = 6.0336184e-11, global = -1.1014649e-13, cumulative = 1.111454e-11
DILUPBiCGStab:  Solving for omega, Initial residual = 2.7387272e-06, Final residual = 3.8007948e-18, No Iterations 3
DILUPBiCGStab:  Solving for k, Initial residual = 0.021083362, Final residual = 6.9787896e-11, No Iterations 3
ExecutionTime = 1.23 s  ClockTime = 1 s

volFieldValue minmaxdomain_scalar write:

volFieldValue minmaxdomain_vector write:

volFieldValue mindomain_scalar write:
    min(region0) of p = -0.010882905
    min(region0) of k = 8.8978376e-08
    min(region0) of omega = 6.1221746
    min(region0) of nut = 5.5460498e-15

volFieldValue mindomain_vector write:
    min(region0) of U = (0.013535293 -1.5677463e-06 -9.2390967e-17)

volFieldValue maxdomain_scalar write:
    max(region0) of p = 0.022491054
    max(region0) of k = 0.00014964663
    max(region0) of omega = 1.1944345e+09
    max(region0) of nut = 3.0866423e-07

volFieldValue maxdomain_vector write:
    max(region0) of U = (1.0050599 0.018447956 4.6841059e-17)

Time = 26

DILUPBiCGStab:  Solving for Ux, Initial residual = 0.0036385204, Final residual = 1.3575351e-09, No Iterations 3
DILUPBiCGStab:  Solving for Uy, Initial residual = 0.0056019761, Final residual = 5.0145595e-09, No Iterations 6
DICPCG:  Solving for p, Initial residual = 0.0065537719, Final residual = 5.9678176e-05, No Iterations 85
DICPCG:  Solving for p, Initial residual = 5.5506565e-05, Final residual = 5.4310196e-07, No Iterations 38
DICPCG:  Solving for p, Initial residual = 5.4307468e-07, Final residual = 9.9001688e-09, No Iterations 67
time step continuity errors : sum local = 6.4976007e-11, global = -4.9526692e-12, cumulative = 6.1618707e-12
DILUPBiCGStab:  Solving for omega, Initial residual = 1.4039601e-06, Final residual = 3.3723536e-18, No Iterations 3
DILUPBiCGStab:  Solving for k, Initial residual = 0.018491479, Final residual = 6.6199838e-11, No Iterations 3
ExecutionTime = 1.28 s  ClockTime = 1 s

volFieldValue minmaxdomain_scalar write:

volFieldValue minmaxdomain_vector write:

volFieldValue mindomain_scalar write:
    min(region0) of p = -0.011346765
    min(region0) of k = 7.7171217e-08
    min(region0) of omega = 6.0589306
    min(region0) of nut = 5.0266535e-15

volFieldValue mindomain_vector write:
    min(region0) of U = (0.012924804 -1.2825609e-06 -9.6174209e-17)

volFieldValue maxdomain_scalar write:
    max(region0) of p = 0.023697891
    max(region0) of k = 0.00014962054
    max(region0) of omega = 1.1944345e+09
    max(region0) of nut = 3.0569097e-07

volFieldValue maxdomain_vector write:
    max(region0) of U = (1.0052253 0.019448924 4.867492e-17)

Time = 27

DILUPBiCGStab:  Solving for Ux, Initial residual = 0.0034636133, Final residual = 1.3917298e-09, No Iterations 3
DILUPBiCGStab:  Solving for Uy, Initial residual = 0.0053932492, Final residual = 6.0180476e-10, No Iterations 7
DICPCG:  Solving for p, Initial residual = 0.0061662245, Final residual = 5.4499691e-05, No Iterations 85
DICPCG:  Solving for p, Initial residual = 5.0806965e-05, Final residual = 4.82664e-07, No Iterations 38
DICPCG:  Solving for p, Initial residual = 4.8264138e-07, Final residual = 9.8008825e-09, No Iterations 66
time step continuity errors : sum local = 6.9404253e-11, global = -4.6690199e-12, cumulative = 1.4928507e-12
DILUPBiCGStab:  Solving for omega, Initial residual = 7.4951256e-07, Final residual = 2.9759876e-18, No Iterations 3
DILUPBiCGStab:  Solving for k, Initial residual = 0.01628099, Final residual = 6.322812e-11, No Iterations 3
ExecutionTime = 1.32 s  ClockTime = 1 s

volFieldValue minmaxdomain_scalar write:

volFieldValue minmaxdomain_vector write:

volFieldValue mindomain_scalar write:
    min(region0) of p = -0.01178491
    min(region0) of k = 6.7274439e-08
    min(region0) of omega = 5.9964286
    min(region0) of nut = 4.5666677e-15

volFieldValue mindomain_vector write:
    min(region0) of U = (0.012353547 -1.0270436e-06 -9.9909669e-17)

volFieldValue maxdomain_scalar write:
    max(region0) of p = 0.024904685
    max(region0) of k = 0.00014959326
    max(region0) of omega = 1.1944345e+09
    max(region0) of nut = 3.0254651e-07

volFieldValue maxdomain_vector write:
    max(region0) of U = (1.0053743 0.020440726 5.0502763e-17)

Time = 28

DILUPBiCGStab:  Solving for Ux, Initial residual = 0.00330105, Final residual = 1.4099564e-09, No Iterations 3
DILUPBiCGStab:  Solving for Uy, Initial residual = 0.0051926481, Final residual = 9.3996977e-09, No Iterations 6
DICPCG:  Solving for p, Initial residual = 0.0058079944, Final residual = 4.9492923e-05, No Iterations 85
DICPCG:  Solving for p, Initial residual = 4.6242337e-05, Final residual = 4.2385278e-07, No Iterations 38
DICPCG:  Solving for p, Initial residual = 4.2383425e-07, Final residual = 9.1135702e-09, No Iterations 66
time step continuity errors : sum local = 6.9453168e-11, global = -4.71497e-12, cumulative = -3.2221193e-12
DILUPBiCGStab:  Solving for omega, Initial residual = 4.5572544e-07, Final residual = 2.6103285e-18, No Iterations 3
DILUPBiCGStab:  Solving for k, Initial residual = 0.014386812, Final residual = 6.0348043e-11, No Iterations 3
ExecutionTime = 1.37 s  ClockTime = 1 s

volFieldValue minmaxdomain_scalar write:

volFieldValue minmaxdomain_vector write:

volFieldValue mindomain_scalar write:
    min(region0) of p = -0.012195737
    min(region0) of k = 5.7688226e-08
    min(region0) of omega = 5.9338213
    min(region0) of nut = 4.1578766e-15

volFieldValue mindomain_vector write:
    min(region0) of U = (0.011818015 -8.080531e-07 -1.0360731e-16)

volFieldValue maxdomain_scalar write:
    max(region0) of p = 0.026108099
    max(region0) of k = 0.00014956477
    max(region0) of omega = 1.1944345e+09
    max(region0) of nut = 2.9920737e-07

volFieldValue maxdomain_vector write:
    max(region0) of U = (1.0055148 0.021421541 5.2332562e-17)

Time = 29

DILUPBiCGStab:  Solving for Ux, Initial residual = 0.0031495422, Final residual = 1.4211407e-09, No Iterations 3
DILUPBiCGStab:  Solving for Uy, Initial residual = 0.0050009708, Final residual = 8.2253406e-09, No Iterations 6
DICPCG:  Solving for p, Initial residual = 0.0054745841, Final residual = 5.4316334e-05, No Iterations 84
DICPCG:  Solving for p, Initial residual = 5.0859391e-05, Final residual = 4.6988089e-07, No Iterations 39
DICPCG:  Solving for p, Initial residual = 4.6985762e-07, Final residual = 8.1523168e-09, No Iterations 64
time step continuity errors : sum local = 6.6692949e-11, global = 4.6157194e-12, cumulative = 1.3936001e-12
DILUPBiCGStab:  Solving for omega, Initial residual = 2.7594218e-07, Final residual = 2.3074854e-18, No Iterations 3
DILUPBiCGStab:  Solving for k, Initial residual = 0.012756451, Final residual = 5.7481611e-11, No Iterations 3
ExecutionTime = 1.41 s  ClockTime = 1 s

volFieldValue minmaxdomain_scalar write:

volFieldValue minmaxdomain_vector write:

volFieldValue mindomain_scalar write:
    min(region0) of p = -0.012579184
    min(region0) of k = 4.9369931e-08
    min(region0) of omega = 5.8704488
    min(region0) of nut = 3.7933998e-15

volFieldValue mindomain_vector write:
    min(region0) of U = (0.011315126 -6.2602918e-07 -1.0725737e-16)

volFieldValue maxdomain_scalar write:
    max(region0) of p = 0.02730564
    max(region0) of k = 0.00014953505
    max(region0) of omega = 1.1944345e+09
    max(region0) of nut = 2.9557821e-07

volFieldValue maxdomain_vector write:
    max(region0) of U = (1.0056469 0.022390047 5.4172518e-17)

Time = 30

DILUPBiCGStab:  Solving for Ux, Initial residual = 0.0030080943, Final residual = 1.4271896e-09, No Iterations 3
DILUPBiCGStab:  Solving for Uy, Initial residual = 0.0048167718, Final residual = 5.397784e-09, No Iterations 6
DICPCG:  Solving for p, Initial residual = 0.0051622622, Final residual = 4.6737948e-05, No Iterations 84
DICPCG:  Solving for p, Initial residual = 4.3853462e-05, Final residual = 4.3175276e-07, No Iterations 38
DICPCG:  Solving for p, Initial residual = 4.3173373e-07, Final residual = 8.462592e-09, No Iterations 64
time step continuity errors : sum local = 7.4142638e-11, global = -3.6395046e-13, cumulative = 1.0296497e-12
DILUPBiCGStab:  Solving for omega, Initial residual = 1.9935455e-07, Final residual = 2.1343128e-18, No Iterations 3
DILUPBiCGStab:  Solving for k, Initial residual = 0.011347301, Final residual = 5.456063e-11, No Iterations 3
ExecutionTime = 1.46 s  ClockTime = 1 s

volFieldValue minmaxdomain_scalar write:

volFieldValue minmaxdomain_vector write:

volFieldValue mindomain_scalar write:
    min(region0) of p = -0.012934735
    min(region0) of k = 4.246584e-08
    min(region0) of omega = 5.805884
    min(region0) of nut = 3.4674718e-15

volFieldValue mindomain_vector write:
    min(region0) of U = (0.010842157 -4.7774035e-07 -1.1093949e-16)

volFieldValue maxdomain_scalar write:
    max(region0) of p = 0.028494751
    max(region0) of k = 0.00014950411
    max(region0) of omega = 1.1944345e+09
    max(region0) of nut = 2.9183957e-07

volFieldValue maxdomain_vector write:
    max(region0) of U = (1.0057662 0.023339623 5.6018528e-17)

Time = 31

DILUPBiCGStab:  Solving for Ux, Initial residual = 0.0028756975, Final residual = 1.4261643e-09, No Iterations 3
DILUPBiCGStab:  Solving for Uy, Initial residual = 0.0046406222, Final residual = 4.4946625e-09, No Iterations 6
DICPCG:  Solving for p, Initial residual = 0.0048686825, Final residual = 4.6652938e-05, No Iterations 83
DICPCG:  Solving for p, Initial residual = 4.3861527e-05, Final residual = 3.9599464e-07, No Iterations 40
DICPCG:  Solving for p, Initial residual = 3.9597559e-07, Final residual = 9.7696236e-09, No Iterations 66
time step continuity errors : sum local = 9.1456527e-11, global = 5.5203943e-13, cumulative = 1.5816891e-12
DILUPBiCGStab:  Solving for omega, Initial residual = 2.4490717e-07, Final residual = 1.9306862e-18, No Iterations 3
DILUPBiCGStab:  Solving for k, Initial residual = 0.010124555, Final residual = 5.157026e-11, No Iterations 3
ExecutionTime = 1.5 s  ClockTime = 1 s

volFieldValue minmaxdomain_scalar write:

volFieldValue minmaxdomain_vector write:

volFieldValue mindomain_scalar write:
    min(region0) of p = -0.013263517
    min(region0) of k = 3.6720479e-08
    min(region0) of omega = 5.7399777
    min(region0) of nut = 3.1752173e-15

volFieldValue mindomain_vector write:
    min(region0) of U = (0.010395062 -3.584841e-07 -1.145188e-16)

volFieldValue maxdomain_scalar write:
    max(region0) of p = 0.029674194
    max(region0) of k = 0.00014947193
    max(region0) of omega = 1.1944345e+09
    max(region0) of nut = 2.8844003e-07

volFieldValue maxdomain_vector write:
    max(region0) of U = (1.005872 0.024273274 5.782301e-17)

Time = 32

DILUPBiCGStab:  Solving for Ux, Initial residual = 0.002751587, Final residual = 1.4177281e-09, No Iterations 3
DILUPBiCGStab:  Solving for Uy, Initial residual = 0.0044717544, Final residual = 4.0242459e-09, No Iterations 6
DICPCG:  Solving for p, Initial residual = 0.004594076, Final residual = 4.5737139e-05, No Iterations 80
DICPCG:  Solving for p, Initial residual = 4.3084392e-05, Final residual = 4.1494407e-07, No Iterations 42
DICPCG:  Solving for p, Initial residual = 4.1492163e-07, Final residual = 9.6423161e-09, No Iterations 64
time step continuity errors : sum local = 9.6234322e-11, global = 5.8987057e-12, cumulative = 7.4803948e-12
DILUPBiCGStab:  Solving for omega, Initial residual = 1.3755198e-06, Final residual = 1.7831015e-18, No Iterations 3
DILUPBiCGStab:  Solving for k, Initial residual = 0.0090600998, Final residual = 4.8438991e-11, No Iterations 3
ExecutionTime = 1.54 s  ClockTime = 1 s

volFieldValue minmaxdomain_scalar write:

volFieldValue minmaxdomain_vector write:

volFieldValue mindomain_scalar write:
    min(region0) of p = -0.013565721
    min(region0) of k = 3.1954007e-08
    min(region0) of omega = 5.6728925
    min(region0) of nut = 2.9125946e-15

volFieldValue mindomain_vector write:
    min(region0) of U = (0.0099727535 -2.6397819e-07 -1.1802635e-16)

volFieldValue maxdomain_scalar write:
    max(region0) of p = 0.03084163
    max(region0) of k = 0.00014943851
    max(region0) of omega = 1.1944345e+09
    max(region0) of nut = 2.8539493e-07

volFieldValue maxdomain_vector write:
    max(region0) of U = (1.0059674 0.025191975 5.9591174e-17)

Time = 33

DILUPBiCGStab:  Solving for Ux, Initial residual = 0.0026349932, Final residual = 1.3891268e-09, No Iterations 3
DILUPBiCGStab:  Solving for Uy, Initial residual = 0.0043104218, Final residual = 3.678393e-09, No Iterations 6
DICPCG:  Solving for p, Initial residual = 0.004331205, Final residual = 4.0402399e-05, No Iterations 79
DICPCG:  Solving for p, Initial residual = 3.8129262e-05, Final residual = 3.6223398e-07, No Iterations 41
DICPCG:  Solving for p, Initial residual = 3.6221677e-07, Final residual = 9.293164e-09, No Iterations 61
time step continuity errors : sum local = 9.8676469e-11, global = 6.528144e-13, cumulative = 8.1332092e-12
DILUPBiCGStab:  Solving for omega, Initial residual = 1.4805341e-06, Final residual = 1.6005391e-18, No Iterations 3
DILUPBiCGStab:  Solving for k, Initial residual = 0.0081295764, Final residual = 4.5054946e-11, No Iterations 3
ExecutionTime = 1.59 s  ClockTime = 1 s

volFieldValue minmaxdomain_scalar write:

volFieldValue minmaxdomain_vector write:

volFieldValue mindomain_scalar write:
    min(region0) of p = -0.013839843
    min(region0) of k = 2.7974397e-08
    min(region0) of omega = 5.605115
    min(region0) of nut = 2.6749652e-15

volFieldValue mindomain_vector write:
    min(region0) of U = (0.0095736786 -1.8983793e-07 -1.2140897e-16)

volFieldValue maxdomain_scalar write:
    max(region0) of p = 0.031995846
    max(region0) of k = 0.00014940386
    max(region0) of omega = 1.1944345e+09
    max(region0) of nut = 2.8268687e-07

volFieldValue maxdomain_vector write:
    max(region0) of U = (1.00605 0.026093354 6.1330204e-17)

Time = 34

DILUPBiCGStab:  Solving for Ux, Initial residual = 0.0025252973, Final residual = 1.3589362e-09, No Iterations 3
DILUPBiCGStab:  Solving for Uy, Initial residual = 0.0041550158, Final residual = 3.3897552e-09, No Iterations 6
DICPCG:  Solving for p, Initial residual = 0.0040821022, Final residual = 3.5026907e-05, No Iterations 79
DICPCG:  Solving for p, Initial residual = 3.3114783e-05, Final residual = 2.9353285e-07, No Iterations 40
DICPCG:  Solving for p, Initial residual = 2.9352158e-07, Final residual = 9.7714204e-09, No Iterations 63
time step continuity errors : sum local = 1.1016242e-10, global = -4.8706122e-12, cumulative = 3.262597e-12
DILUPBiCGStab:  Solving for omega, Initial residual = 9.1564002e-07, Final residual = 1.4285021e-18, No Iterations 3
DILUPBiCGStab:  Solving for k, Initial residual = 0.0073129608, Final residual = 4.1427078e-11, No Iterations 3
ExecutionTime = 1.63 s  ClockTime = 1 s

volFieldValue minmaxdomain_scalar write:

volFieldValue minmaxdomain_vector write:

volFieldValue mindomain_scalar write:
    min(region0) of p = -0.014084807
    min(region0) of k = 2.4614911e-08
    min(region0) of omega = 5.5374367
    min(region0) of nut = 2.4601714e-15

volFieldValue mindomain_vector write:
    min(region0) of U = (0.0091961134 -1.3219699e-07 -1.2470594e-16)

volFieldValue maxdomain_scalar write:
    max(region0) of p = 0.033134387
    max(region0) of k = 0.00014936797
    max(region0) of omega = 1.1944345e+09
    max(region0) of nut = 2.8014142e-07

volFieldValue maxdomain_vector write:
    max(region0) of U = (1.0061214 0.026976834 6.3079898e-17)

Time = 35

DILUPBiCGStab:  Solving for Ux, Initial residual = 0.0024219228, Final residual = 1.3305273e-09, No Iterations 3
DILUPBiCGStab:  Solving for Uy, Initial residual = 0.0040061608, Final residual = 9.8201251e-09, No Iterations 5
DICPCG:  Solving for p, Initial residual = 0.0038540607, Final residual = 3.7567534e-05, No Iterations 78
DICPCG:  Solving for p, Initial residual = 3.5578402e-05, Final residual = 3.2718192e-07, No Iterations 39
DICPCG:  Solving for p, Initial residual = 3.2717244e-07, Final residual = 9.3568776e-09, No Iterations 64
time step continuity errors : sum local = 1.1178293e-10, global = -6.8359492e-12, cumulative = -3.5733522e-12
DILUPBiCGStab:  Solving for omega, Initial residual = 4.4302746e-07, Final residual = 1.2713883e-18, No Iterations 3
DILUPBiCGStab:  Solving for k, Initial residual = 0.006593898, Final residual = 3.7534267e-11, No Iterations 3
ExecutionTime = 1.68 s  ClockTime = 2 s

volFieldValue minmaxdomain_scalar write:

volFieldValue minmaxdomain_vector write:

volFieldValue mindomain_scalar write:
    min(region0) of p = -0.014302148
    min(region0) of k = 2.1209285e-08
    min(region0) of omega = 5.4708992
    min(region0) of nut = 2.2656322e-15

volFieldValue mindomain_vector write:
    min(region0) of U = (0.0088384143 -8.7819992e-08 -1.2792913e-16)

volFieldValue maxdomain_scalar write:
    max(region0) of p = 0.034257257
    max(region0) of k = 0.00014933086
    max(region0) of omega = 1.1944345e+09
    max(region0) of nut = 2.7665237e-07

volFieldValue maxdomain_vector write:
    max(region0) of U = (1.0061878 0.027841296 6.4815165e-17)

Time = 36

DILUPBiCGStab:  Solving for Ux, Initial residual = 0.0023243609, Final residual = 1.3100406e-09, No Iterations 3
DILUPBiCGStab:  Solving for Uy, Initial residual = 0.0038641203, Final residual = 9.171566e-09, No Iterations 5
DICPCG:  Solving for p, Initial residual = 0.0036413791, Final residual = 3.3436987e-05, No Iterations 78
DICPCG:  Solving for p, Initial residual = 3.1719293e-05, Final residual = 2.9496191e-07, No Iterations 30
DICPCG:  Solving for p, Initial residual = 2.9495643e-07, Final residual = 8.3080632e-09, No Iterations 66
time step continuity errors : sum local = 1.0497782e-10, global = 1.4822929e-12, cumulative = -2.0910594e-12
DILUPBiCGStab:  Solving for omega, Initial residual = 2.737082e-07, Final residual = 1.1899013e-18, No Iterations 3
DILUPBiCGStab:  Solving for k, Initial residual = 0.0059587832, Final residual = 3.3454918e-11, No Iterations 3
ExecutionTime = 1.72 s  ClockTime = 2 s

volFieldValue minmaxdomain_scalar write:

volFieldValue minmaxdomain_vector write:

volFieldValue mindomain_scalar write:
    min(region0) of p = -0.014493421
    min(region0) of k = 1.8357824e-08
    min(region0) of omega = 5.4067037
    min(region0) of nut = 2.0891092e-15

volFieldValue mindomain_vector write:
    min(region0) of U = (0.0084987293 -5.4741879e-08 -1.3109366e-16)

volFieldValue maxdomain_scalar write:
    max(region0) of p = 0.035364002
    max(region0) of k = 0.00014929253
    max(region0) of omega = 1.1944345e+09
    max(region0) of nut = 2.7152514e-07

volFieldValue maxdomain_vector write:
    max(region0) of U = (1.00625 0.028686935 6.654038e-17)

Time = 37

DILUPBiCGStab:  Solving for Ux, Initial residual = 0.0022321578, Final residual = 1.2943378e-09, No Iterations 3
DILUPBiCGStab:  Solving for Uy, Initial residual = 0.0037292728, Final residual = 8.569752e-09, No Iterations 5
DICPCG:  Solving for p, Initial residual = 0.0034432235, Final residual = 2.9927887e-05, No Iterations 78
DICPCG:  Solving for p, Initial residual = 2.8436046e-05, Final residual = 2.6056176e-07, No Iterations 29
DICPCG:  Solving for p, Initial residual = 2.6055909e-07, Final residual = 8.7980496e-09, No Iterations 64
time step continuity errors : sum local = 1.1736871e-10, global = -3.3569093e-12, cumulative = -5.4479687e-12
DILUPBiCGStab:  Solving for omega, Initial residual = 1.9304796e-07, Final residual = 1.2335009e-18, No Iterations 3
DILUPBiCGStab:  Solving for k, Initial residual = 0.0053961259, Final residual = 2.9286162e-11, No Iterations 3
ExecutionTime = 1.76 s  ClockTime = 2 s

volFieldValue minmaxdomain_scalar write:

volFieldValue minmaxdomain_vector write:

volFieldValue mindomain_scalar write:
    min(region0) of p = -0.014660417
    min(region0) of k = 1.5966246e-08
    min(region0) of omega = 5.3460949
    min(region0) of nut = 1.9285008e-15

volFieldValue mindomain_vector write:
    min(region0) of U = (0.0081761895 -3.1675306e-08 -1.3422915e-16)

volFieldValue maxdomain_scalar write:
    max(region0) of p = 0.036453028
    max(region0) of k = 0.00014925299
    max(region0) of omega = 1.1944345e+09
    max(region0) of nut = 2.6447345e-07

volFieldValue maxdomain_vector write:
    max(region0) of U = (1.0063053 0.0295152 6.8247681e-17)

Time = 38

DILUPBiCGStab:  Solving for Ux, Initial residual = 0.0021448977, Final residual = 1.2801107e-09, No Iterations 3
DILUPBiCGStab:  Solving for Uy, Initial residual = 0.0036006305, Final residual = 8.0177276e-09, No Iterations 5
DICPCG:  Solving for p, Initial residual = 0.003260358, Final residual = 2.7158681e-05, No Iterations 78
DICPCG:  Solving for p, Initial residual = 2.5844627e-05, Final residual = 2.2306578e-07, No Iterations 29
DICPCG:  Solving for p, Initial residual = 2.230653e-07, Final residual = 9.1867275e-09, No Iterations 63
time step continuity errors : sum local = 1.2916531e-10, global = -3.9376501e-12, cumulative = -9.3856188e-12
DILUPBiCGStab:  Solving for omega, Initial residual = 2.3204269e-07, Final residual = 1.2013889e-18, No Iterations 3
DILUPBiCGStab:  Solving for k, Initial residual = 0.0048962648, Final residual = 2.511966e-11, No Iterations 3
ExecutionTime = 1.8 s  ClockTime = 2 s

volFieldValue minmaxdomain_scalar write:

volFieldValue minmaxdomain_vector write:

volFieldValue mindomain_scalar write:
    min(region0) of p = -0.014804888
    min(region0) of k = 1.3954659e-08
    min(region0) of omega = 5.2902312
    min(region0) of nut = 1.782136e-15

volFieldValue mindomain_vector write:
    min(region0) of U = (0.0078696325 -1.5284253e-08 -1.3729989e-16)

volFieldValue maxdomain_scalar write:
    max(region0) of p = 0.037523005
    max(region0) of k = 0.00014921225
    max(region0) of omega = 1.1944345e+09
    max(region0) of nut = 2.5539789e-07

volFieldValue maxdomain_vector write:
    max(region0) of U = (1.0063532 0.030331972 6.9927554e-17)

Time = 39

DILUPBiCGStab:  Solving for Ux, Initial residual = 0.0020622219, Final residual = 1.266354e-09, No Iterations 3
DILUPBiCGStab:  Solving for Uy, Initial residual = 0.0034777611, Final residual = 7.5068046e-09, No Iterations 5
DICPCG:  Solving for p, Initial residual = 0.0030892451, Final residual = 2.4776641e-05, No Iterations 78
DICPCG:  Solving for p, Initial residual = 2.3612602e-05, Final residual = 2.3458964e-07, No Iterations 24
DICPCG:  Solving for p, Initial residual = 2.3459096e-07, Final residual = 9.2030059e-09, No Iterations 62
time step continuity errors : sum local = 1.3615088e-10, global = -9.1422558e-15, cumulative = -9.3947611e-12
DILUPBiCGStab:  Solving for omega, Initial residual = 7.4380301e-07, Final residual = 1.092306e-18, No Iterations 3
DILUPBiCGStab:  Solving for k, Initial residual = 0.0044511694, Final residual = 2.1052232e-11, No Iterations 3
ExecutionTime = 1.83 s  ClockTime = 2 s

volFieldValue minmaxdomain_scalar write:

volFieldValue minmaxdomain_vector write:

volFieldValue mindomain_scalar write:
    min(region0) of p = -0.014928413
    min(region0) of k = 1.2265338e-08
    min(region0) of omega = 5.2400639
    min(region0) of nut = 1.6486149e-15

volFieldValue mindomain_vector write:
    min(region0) of U = (0.007577999 -5.4352901e-09 -1.4022626e-16)

volFieldValue maxdomain_scalar write:
    max(region0) of p = 0.038574686
    max(region0) of k = 0.00014917034
    max(region0) of omega = 1.1944345e+09
    max(region0) of nut = 2.4471885e-07

volFieldValue maxdomain_vector write:
    max(region0) of U = (1.0063901 0.031131091 7.1526288e-17)

Time = 40

DILUPBiCGStab:  Solving for Ux, Initial residual = 0.0019837904, Final residual = 1.2527875e-09, No Iterations 3
DILUPBiCGStab:  Solving for Uy, Initial residual = 0.0033598747, Final residual = 7.0478643e-09, No Iterations 5
DICPCG:  Solving for p, Initial residual = 0.0029334785, Final residual = 2.3410051e-05, No Iterations 78
DICPCG:  Solving for p, Initial residual = 2.2342493e-05, Final residual = 1.8830621e-07, No Iterations 29
DICPCG:  Solving for p, Initial residual = 1.8830837e-07, Final residual = 9.9838518e-09, No Iterations 62
time step continuity errors : sum local = 1.551661e-10, global = 4.0844289e-13, cumulative = -8.9863182e-12
DILUPBiCGStab:  Solving for omega, Initial residual = 6.5144985e-07, Final residual = 1.0836072e-18, No Iterations 3
DILUPBiCGStab:  Solving for k, Initial residual = 0.0040537175, Final residual = 1.7114475e-11, No Iterations 3
ExecutionTime = 1.88 s  ClockTime = 2 s

volFieldValue minmaxdomain_scalar write:

volFieldValue minmaxdomain_vector write:

volFieldValue mindomain_scalar write:
    min(region0) of p = -0.01503315
    min(region0) of k = 1.0765561e-08
    min(region0) of omega = 5.1962414
    min(region0) of nut = 1.5266108e-15

volFieldValue mindomain_vector write:
    min(region0) of U = (0.007300322 -7.5979062e-10 -1.4317581e-16)

volFieldValue maxdomain_scalar write:
    max(region0) of p = 0.03960763
    max(region0) of k = 0.00014912726
    max(region0) of omega = 1.1944345e+09
    max(region0) of nut = 2.3251529e-07

volFieldValue maxdomain_vector write:
    max(region0) of U = (1.0064294 0.031911729 7.3125305e-17)

Time = 41

DILUPBiCGStab:  Solving for Ux, Initial residual = 0.0019093099, Final residual = 1.2373082e-09, No Iterations 3
DILUPBiCGStab:  Solving for Uy, Initial residual = 0.0032479305, Final residual = 6.626726e-09, No Iterations 5
DICPCG:  Solving for p, Initial residual = 0.0027872085, Final residual = 2.2106673e-05, No Iterations 78
DICPCG:  Solving for p, Initial residual = 2.1127607e-05, Final residual = 1.8998751e-07, No Iterations 29
DICPCG:  Solving for p, Initial residual = 1.8999098e-07, Final residual = 9.568838e-09, No Iterations 62
time step continuity errors : sum local = 1.5599286e-10, global = 4.0201266e-12, cumulative = -4.9661916e-12
DILUPBiCGStab:  Solving for omega, Initial residual = 4.2362644e-07, Final residual = 1.0790729e-18, No Iterations 3
DILUPBiCGStab:  Solving for k, Initial residual = 0.0036979818, Final residual = 1.3238751e-11, No Iterations 3
ExecutionTime = 1.92 s  ClockTime = 2 s

volFieldValue minmaxdomain_scalar write:

volFieldValue minmaxdomain_vector write:

volFieldValue mindomain_scalar write:
    min(region0) of p = -0.01512093
    min(region0) of k = 9.335607e-09
    min(region0) of omega = 5.1590562
    min(region0) of nut = 1.4149637e-15

volFieldValue mindomain_vector write:
    min(region0) of U = (0.0070357165 -1.467027e-10 -1.4580852e-16)

volFieldValue maxdomain_scalar write:
    max(region0) of p = 0.04062158
    max(region0) of k = 0.00014908303
    max(region0) of omega = 1.1944345e+09
    max(region0) of nut = 2.1928927e-07

volFieldValue maxdomain_vector write:
    max(region0) of U = (1.0064484 0.032674088 7.4583093e-17)

Time = 42

DILUPBiCGStab:  Solving for Ux, Initial residual = 0.0018384993, Final residual = 1.2199249e-09, No Iterations 3
DILUPBiCGStab:  Solving for Uy, Initial residual = 0.0031403855, Final residual = 6.2354487e-09, No Iterations 5
DICPCG:  Solving for p, Initial residual = 0.0026550515, Final residual = 2.162538e-05, No Iterations 78
DICPCG:  Solving for p, Initial residual = 2.0695478e-05, Final residual = 1.995576e-07, No Iterations 29
DICPCG:  Solving for p, Initial residual = 1.9956215e-07, Final residual = 9.2993959e-09, No Iterations 63
time step continuity errors : sum local = 1.5878248e-10, global = 5.6082705e-12, cumulative = 6.420789e-13
DILUPBiCGStab:  Solving for omega, Initial residual = 2.8740228e-07, Final residual = 1.1148298e-18, No Iterations 3
DILUPBiCGStab:  Solving for k, Initial residual = 0.0033789583, Final residual = 1.0800276e-11, No Iterations 3
ExecutionTime = 1.96 s  ClockTime = 2 s

volFieldValue minmaxdomain_scalar write:

volFieldValue minmaxdomain_vector write:

volFieldValue mindomain_scalar write:
    min(region0) of p = -0.015193059
    min(region0) of k = 8.1354732e-09
    min(region0) of omega = 5.1284399
    min(region0) of nut = 1.3126533e-15

volFieldValue mindomain_vector write:
    min(region0) of U = (0.0067833707 1.0823285e-15 -1.4845542e-16)

volFieldValue maxdomain_scalar write:
    max(region0) of p = 0.041616915
    max(region0) of k = 0.00014903769
    max(region0) of omega = 1.1944345e+09
    max(region0) of nut = 2.0732636e-07

volFieldValue maxdomain_vector write:
    max(region0) of U = (1.0064569 0.033417722 7.6038279e-17)

Time = 43

DILUPBiCGStab:  Solving for Ux, Initial residual = 0.0017711134, Final residual = 1.1991435e-09, No Iterations 3
DILUPBiCGStab:  Solving for Uy, Initial residual = 0.0030381601, Final residual = 5.8823493e-09, No Iterations 5
DICPCG:  Solving for p, Initial residual = 0.0025324258, Final residual = 2.0968913e-05, No Iterations 78
DICPCG:  Solving for p, Initial residual = 2.0093044e-05, Final residual = 1.9582186e-07, No Iterations 38
DICPCG:  Solving for p, Initial residual = 1.9582707e-07, Final residual = 8.8776656e-09, No Iterations 58
time step continuity errors : sum local = 1.5853911e-10, global = 5.9934573e-12, cumulative = 6.6355362e-12
DILUPBiCGStab:  Solving for omega, Initial residual = 2.041265e-07, Final residual = 1.1675095e-18, No Iterations 3
DILUPBiCGStab:  Solving for k, Initial residual = 0.0030923679, Final residual = 3.5896863e-11, No Iterations 3
ExecutionTime = 2 s  ClockTime = 2 s

volFieldValue minmaxdomain_scalar write:

volFieldValue minmaxdomain_vector write:

volFieldValue mindomain_scalar write:
    min(region0) of p = -0.015248087
    min(region0) of k = 7.1237177e-09
    min(region0) of omega = 5.1040038
    min(region0) of nut = 1.2184476e-15

volFieldValue mindomain_vector write:
    min(region0) of U = (0.0065425384 1.8918017e-15 -1.5102181e-16)

volFieldValue maxdomain_scalar write:
    max(region0) of p = 0.042592941
    max(region0) of k = 0.00014899123
    max(region0) of omega = 1.1944345e+09
    max(region0) of nut = 2.0690067e-07

volFieldValue maxdomain_vector write:
    max(region0) of U = (1.0064986 0.03414368 7.7454731e-17)

Time = 44

DILUPBiCGStab:  Solving for Ux, Initial residual = 0.0017069234, Final residual = 1.1777532e-09, No Iterations 3
DILUPBiCGStab:  Solving for Uy, Initial residual = 0.0029400275, Final residual = 5.5761123e-09, No Iterations 5
DICPCG:  Solving for p, Initial residual = 0.0024172965, Final residual = 2.1188975e-05, No Iterations 78
DICPCG:  Solving for p, Initial residual = 2.0329156e-05, Final residual = 1.754381e-07, No Iterations 39
DICPCG:  Solving for p, Initial residual = 1.7544313e-07, Final residual = 8.7240153e-09, No Iterations 61
time step continuity errors : sum local = 1.6272435e-10, global = 3.9013673e-13, cumulative = 7.0256729e-12
DILUPBiCGStab:  Solving for omega, Initial residual = 2.4240487e-07, Final residual = 1.1651866e-18, No Iterations 3
DILUPBiCGStab:  Solving for k, Initial residual = 0.0028345266, Final residual = 2.5116385e-10, No Iterations 3
ExecutionTime = 2.04 s  ClockTime = 2 s

volFieldValue minmaxdomain_scalar write:

volFieldValue minmaxdomain_vector write:

volFieldValue mindomain_scalar write:
    min(region0) of p = -0.015285777
    min(region0) of k = 6.2684891e-09
    min(region0) of omega = 5.0851133
    min(region0) of nut = 1.1313519e-15

volFieldValue mindomain_vector write:
    min(region0) of U = (0.0063125326 2.7954233e-15 -1.5352168e-16)

volFieldValue maxdomain_scalar write:
    max(region0) of p = 0.043548985
    max(region0) of k = 0.0001489437
    max(region0) of omega = 1.1944345e+09
    max(region0) of nut = 2.0647725e-07

volFieldValue maxdomain_vector write:
    max(region0) of U = (1.0065614 0.03485141 7.8832428e-17)

Time = 45

DILUPBiCGStab:  Solving for Ux, Initial residual = 0.0016457306, Final residual = 1.1568595e-09, No Iterations 3
DILUPBiCGStab:  Solving for Uy, Initial residual = 0.0028456197, Final residual = 5.3354023e-09, No Iterations 5
DICPCG:  Solving for p, Initial residual = 0.0023090277, Final residual = 2.1233808e-05, No Iterations 78
DICPCG:  Solving for p, Initial residual = 2.0396725e-05, Final residual = 1.8547292e-07, No Iterations 39
DICPCG:  Solving for p, Initial residual = 1.8547859e-07, Final residual = 7.4401042e-09, No Iterations 61
time step continuity errors : sum local = 1.4475801e-10, global = 2.8223155e-12, cumulative = 9.8479884e-12
DILUPBiCGStab:  Solving for omega, Initial residual = 3.5916609e-07, Final residual = 1.186547e-18, No Iterations 3
DILUPBiCGStab:  Solving for k, Initial residual = 0.0026022295, Final residual = 2.9384668e-10, No Iterations 3
ExecutionTime = 2.08 s  ClockTime = 2 s

volFieldValue minmaxdomain_scalar write:

volFieldValue minmaxdomain_vector write:

volFieldValue mindomain_scalar write:
    min(region0) of p = -0.015305053
    min(region0) of k = 5.5022003e-09
    min(region0) of omega = 5.0709809
    min(region0) of nut = 1.0513729e-15

volFieldValue mindomain_vector write:
    min(region0) of U = (0.0060927192 3.8460302e-15 -1.5602254e-16)

volFieldValue maxdomain_scalar write:
    max(region0) of p = 0.044485635
    max(region0) of k = 0.0001488951
    max(region0) of omega = 1.1944345e+09
    max(region0) of nut = 2.0615278e-07

volFieldValue maxdomain_vector write:
    max(region0) of U = (1.0066219 0.035540746 8.0200166e-17)

Time = 46

DILUPBiCGStab:  Solving for Ux, Initial residual = 0.0015873442, Final residual = 1.1350524e-09, No Iterations 3
DILUPBiCGStab:  Solving for Uy, Initial residual = 0.0027549746, Final residual = 5.1493863e-09, No Iterations 5
DICPCG:  Solving for p, Initial residual = 0.0022036978, Final residual = 2.1487036e-05, No Iterations 78
DICPCG:  Solving for p, Initial residual = 2.0663815e-05, Final residual = 2.037459e-07, No Iterations 39
DICPCG:  Solving for p, Initial residual = 2.0375254e-07, Final residual = 8.627093e-09, No Iterations 61
time step continuity errors : sum local = 1.748673e-10, global = 1.1945497e-11, cumulative = 2.1793485e-11
DILUPBiCGStab:  Solving for omega, Initial residual = 3.3597755e-07, Final residual = 1.1950376e-18, No Iterations 3
DILUPBiCGStab:  Solving for k, Initial residual = 0.0023926022, Final residual = 2.0955019e-11, No Iterations 3
ExecutionTime = 2.13 s  ClockTime = 2 s

volFieldValue minmaxdomain_scalar write:

volFieldValue minmaxdomain_vector write:

volFieldValue mindomain_scalar write:
    min(region0) of p = -0.015308029
    min(region0) of k = 4.7862726e-09
    min(region0) of omega = 5.0607588
    min(region0) of nut = 9.7783298e-16

volFieldValue mindomain_vector write:
    min(region0) of U = (0.0058825124 5.0713489e-15 -1.5844689e-16)

volFieldValue maxdomain_scalar write:
    max(region0) of p = 0.045402991
    max(region0) of k = 0.00014884548
    max(region0) of omega = 1.1944345e+09
    max(region0) of nut = 2.0586994e-07

volFieldValue maxdomain_vector write:
    max(region0) of U = (1.00667 0.036211932 8.155621e-17)

Time = 47

DILUPBiCGStab:  Solving for Ux, Initial residual = 0.001531592, Final residual = 1.1125523e-09, No Iterations 3
DILUPBiCGStab:  Solving for Uy, Initial residual = 0.0026674901, Final residual = 4.9301656e-09, No Iterations 5
DICPCG:  Solving for p, Initial residual = 0.0021041452, Final residual = 2.0088459e-05, No Iterations 79
DICPCG:  Solving for p, Initial residual = 1.9340618e-05, Final residual = 1.9324826e-07, No Iterations 40
DICPCG:  Solving for p, Initial residual = 1.9325447e-07, Final residual = 9.2770806e-09, No Iterations 62
time step continuity errors : sum local = 1.9566198e-10, global = 8.9794292e-12, cumulative = 3.0772915e-11
DILUPBiCGStab:  Solving for omega, Initial residual = 2.7543487e-07, Final residual = 1.1674273e-18, No Iterations 3
DILUPBiCGStab:  Solving for k, Initial residual = 0.0022031304, Final residual = 5.217375e-12, No Iterations 3
ExecutionTime = 2.16 s  ClockTime = 2 s

volFieldValue minmaxdomain_scalar write:

volFieldValue minmaxdomain_vector write:

volFieldValue mindomain_scalar write:
    min(region0) of p = -0.01529672
    min(region0) of k = 4.184603e-09
    min(region0) of omega = 5.0536194
    min(region0) of nut = 9.1012999e-16

volFieldValue mindomain_vector write:
    min(region0) of U = (0.0056813697 6.5026366e-15 -1.608417e-16)

volFieldValue maxdomain_scalar write:
    max(region0) of p = 0.046300424
    max(region0) of k = 0.00014879484
    max(region0) of omega = 1.1944345e+09
    max(region0) of nut = 2.0558899e-07

volFieldValue maxdomain_vector write:
    max(region0) of U = (1.006711 0.036865006 8.2901014e-17)

Time = 48

DILUPBiCGStab:  Solving for Ux, Initial residual = 0.0014783128, Final residual = 1.0897875e-09, No Iterations 3
DILUPBiCGStab:  Solving for Uy, Initial residual = 0.0025839552, Final residual = 4.6049826e-09, No Iterations 5
DICPCG:  Solving for p, Initial residual = 0.0020101983, Final residual = 1.9125373e-05, No Iterations 82
DICPCG:  Solving for p, Initial residual = 1.843372e-05, Final residual = 1.8331666e-07, No Iterations 39
DICPCG:  Solving for p, Initial residual = 1.8331979e-07, Final residual = 9.1542388e-09, No Iterations 53
time step continuity errors : sum local = 2.0065821e-10, global = -7.6083903e-12, cumulative = 2.3164524e-11
DILUPBiCGStab:  Solving for omega, Initial residual = 2.125839e-07, Final residual = 1.1201298e-18, No Iterations 3
DILUPBiCGStab:  Solving for k, Initial residual = 0.002031617, Final residual = 3.0425537e-12, No Iterations 3
ExecutionTime = 2.2 s  ClockTime = 2 s

volFieldValue minmaxdomain_scalar write:

volFieldValue minmaxdomain_vector write:

volFieldValue mindomain_scalar write:
    min(region0) of p = -0.015271946
    min(region0) of k = 3.6765962e-09
    min(region0) of omega = 5.0488138
    min(region0) of nut = 8.477288e-16

volFieldValue mindomain_vector write:
    min(region0) of U = (0.005488788 8.0157146e-15 -1.6316343e-16)

volFieldValue maxdomain_scalar write:
    max(region0) of p = 0.047177752
    max(region0) of k = 0.00014874322
    max(region0) of omega = 1.1944345e+09
    max(region0) of nut = 2.0530847e-07

volFieldValue maxdomain_vector write:
    max(region0) of U = (1.0067493 0.037500481 8.4206015e-17)

Time = 49

DILUPBiCGStab:  Solving for Ux, Initial residual = 0.0014273589, Final residual = 1.0651478e-09, No Iterations 3
DILUPBiCGStab:  Solving for Uy, Initial residual = 0.0025040411, Final residual = 4.1557422e-09, No Iterations 5
[...]
    min(region0) of U = (0.00013849122 -0.00094592398 -1.0104152e-16)

volFieldValue maxdomain_scalar write:
    max(region0) of p = 0.080383772
    max(region0) of k = 0.0066173307
    max(region0) of omega = 1.1944345e+09
    max(region0) of nut = 0.00013583652

volFieldValue maxdomain_vector write:
    max(region0) of U = (1.0117227 0.056165606 7.3716653e-17)

Time = 1994

DILUPBiCGStab:  Solving for Ux, Initial residual = 9.8154121e-08, Final residual = 6.6799216e-13, No Iterations 3
DILUPBiCGStab:  Solving for Uy, Initial residual = 3.7899601e-07, Final residual = 4.4811454e-11, No Iterations 3
DICPCG:  Solving for p, Initial residual = 1.0479131e-06, Final residual = 8.9498341e-09, No Iterations 68
DICPCG:  Solving for p, Initial residual = 8.9498578e-09, Final residual = 6.9850235e-09, No Iterations 3
DICPCG:  Solving for p, Initial residual = 6.9850231e-09, Final residual = 4.8561541e-09, No Iterations 3
time step continuity errors : sum local = 5.0865956e-10, global = -3.362255e-11, cumulative = -2.4428141e-08
DILUPBiCGStab:  Solving for omega, Initial residual = 6.9509941e-10, Final residual = 2.7910437e-21, No Iterations 3
DILUPBiCGStab:  Solving for k, Initial residual = 6.2987485e-07, Final residual = 4.7668358e-14, No Iterations 3
ExecutionTime = 60.91 s  ClockTime = 61 s

volFieldValue minmaxdomain_scalar write:

volFieldValue minmaxdomain_vector write:

volFieldValue mindomain_scalar write:
    min(region0) of p = -0.00051368303
    min(region0) of k = 7.0151152e-12
    min(region0) of omega = 5.0537366
    min(region0) of nut = 4.7469016e-19

volFieldValue mindomain_vector write:
    min(region0) of U = (0.00013848991 -0.00094597135 -1.0104136e-16)

volFieldValue maxdomain_scalar write:
    max(region0) of p = 0.080383397
    max(region0) of k = 0.0066173331
    max(region0) of omega = 1.1944345e+09
    max(region0) of nut = 0.00013583621

volFieldValue maxdomain_vector write:
    max(region0) of U = (1.0117227 0.056165481 7.3716479e-17)

Time = 1995

DILUPBiCGStab:  Solving for Ux, Initial residual = 9.8106588e-08, Final residual = 6.6781205e-13, No Iterations 3
DILUPBiCGStab:  Solving for Uy, Initial residual = 3.7893319e-07, Final residual = 4.4845326e-11, No Iterations 3
DICPCG:  Solving for p, Initial residual = 1.0478459e-06, Final residual = 8.9478494e-09, No Iterations 68
DICPCG:  Solving for p, Initial residual = 8.9478733e-09, Final residual = 6.9832192e-09, No Iterations 3
DICPCG:  Solving for p, Initial residual = 6.9832192e-09, Final residual = 4.8582786e-09, No Iterations 3
time step continuity errors : sum local = 5.0888087e-10, global = -3.3612606e-11, cumulative = -2.4461753e-08
DILUPBiCGStab:  Solving for omega, Initial residual = 6.9498366e-10, Final residual = 2.7905741e-21, No Iterations 3
DILUPBiCGStab:  Solving for k, Initial residual = 6.2954124e-07, Final residual = 4.7668176e-14, No Iterations 3
ExecutionTime = 60.94 s  ClockTime = 61 s

volFieldValue minmaxdomain_scalar write:

volFieldValue minmaxdomain_vector write:

volFieldValue mindomain_scalar write:
    min(region0) of p = -0.00051368347
    min(region0) of k = 7.0147031e-12
    min(region0) of omega = 5.0537366
    min(region0) of nut = 4.7468192e-19

volFieldValue mindomain_vector write:
    min(region0) of U = (0.00013848861 -0.0009460187 -1.0104119e-16)

volFieldValue maxdomain_scalar write:
    max(region0) of p = 0.080383021
    max(region0) of k = 0.0066173354
    max(region0) of omega = 1.1944345e+09
    max(region0) of nut = 0.00013583589

volFieldValue maxdomain_vector write:
    max(region0) of U = (1.0117227 0.056165356 7.3716304e-17)

Time = 1996

DILUPBiCGStab:  Solving for Ux, Initial residual = 9.8058965e-08, Final residual = 6.6763888e-13, No Iterations 3
DILUPBiCGStab:  Solving for Uy, Initial residual = 3.7887255e-07, Final residual = 4.487647e-11, No Iterations 3
DICPCG:  Solving for p, Initial residual = 1.0477691e-06, Final residual = 8.9464676e-09, No Iterations 68
DICPCG:  Solving for p, Initial residual = 8.9464907e-09, Final residual = 6.9834454e-09, No Iterations 3
DICPCG:  Solving for p, Initial residual = 6.9834451e-09, Final residual = 4.8532438e-09, No Iterations 3
time step continuity errors : sum local = 5.0835215e-10, global = -3.3603839e-11, cumulative = -2.4495357e-08
DILUPBiCGStab:  Solving for omega, Initial residual = 6.9486966e-10, Final residual = 2.7899805e-21, No Iterations 3
DILUPBiCGStab:  Solving for k, Initial residual = 6.2920766e-07, Final residual = 4.7668861e-14, No Iterations 3
ExecutionTime = 60.97 s  ClockTime = 61 s

volFieldValue minmaxdomain_scalar write:

volFieldValue minmaxdomain_vector write:

volFieldValue mindomain_scalar write:
    min(region0) of p = -0.00051368391
    min(region0) of k = 7.0142911e-12
    min(region0) of omega = 5.0537365
    min(region0) of nut = 4.7467369e-19

volFieldValue mindomain_vector write:
    min(region0) of U = (0.00013848731 -0.00094606603 -1.0104102e-16)

volFieldValue maxdomain_scalar write:
    max(region0) of p = 0.080382646
    max(region0) of k = 0.0066173378
    max(region0) of omega = 1.1944345e+09
    max(region0) of nut = 0.00013583557

volFieldValue maxdomain_vector write:
    max(region0) of U = (1.0117227 0.056165231 7.371613e-17)

Time = 1997

DILUPBiCGStab:  Solving for Ux, Initial residual = 9.8011485e-08, Final residual = 6.6747005e-13, No Iterations 3
DILUPBiCGStab:  Solving for Uy, Initial residual = 3.7881091e-07, Final residual = 4.4900953e-11, No Iterations 3
DICPCG:  Solving for p, Initial residual = 1.0476633e-06, Final residual = 8.9425009e-09, No Iterations 68
DICPCG:  Solving for p, Initial residual = 8.9425229e-09, Final residual = 6.9802112e-09, No Iterations 3
DICPCG:  Solving for p, Initial residual = 6.9802122e-09, Final residual = 4.8532997e-09, No Iterations 3
time step continuity errors : sum local = 5.0835695e-10, global = -3.3589418e-11, cumulative = -2.4528947e-08
DILUPBiCGStab:  Solving for omega, Initial residual = 6.9475913e-10, Final residual = 2.7898463e-21, No Iterations 3
DILUPBiCGStab:  Solving for k, Initial residual = 6.2887375e-07, Final residual = 4.7670343e-14, No Iterations 3
ExecutionTime = 61 s  ClockTime = 61 s

volFieldValue minmaxdomain_scalar write:

volFieldValue minmaxdomain_vector write:

volFieldValue mindomain_scalar write:
    min(region0) of p = -0.00051368435
    min(region0) of k = 7.0138793e-12
    min(region0) of omega = 5.0537365
    min(region0) of nut = 4.7466546e-19

volFieldValue mindomain_vector write:
    min(region0) of U = (0.00013848601 -0.00094611335 -1.0104085e-16)

volFieldValue maxdomain_scalar write:
    max(region0) of p = 0.080382271
    max(region0) of k = 0.0066173402
    max(region0) of omega = 1.1944345e+09
    max(region0) of nut = 0.00013583526

volFieldValue maxdomain_vector write:
    max(region0) of U = (1.0117227 0.056165106 7.3715956e-17)

Time = 1998

DILUPBiCGStab:  Solving for Ux, Initial residual = 9.7963946e-08, Final residual = 6.6728379e-13, No Iterations 3
DILUPBiCGStab:  Solving for Uy, Initial residual = 3.7873342e-07, Final residual = 4.4921119e-11, No Iterations 3
DICPCG:  Solving for p, Initial residual = 1.0475237e-06, Final residual = 8.9378987e-09, No Iterations 68
DICPCG:  Solving for p, Initial residual = 8.9379217e-09, Final residual = 6.9775476e-09, No Iterations 3
DICPCG:  Solving for p, Initial residual = 6.9775475e-09, Final residual = 4.8488855e-09, No Iterations 3
time step continuity errors : sum local = 5.0789326e-10, global = -3.3571801e-11, cumulative = -2.4562518e-08
DILUPBiCGStab:  Solving for omega, Initial residual = 6.9465389e-10, Final residual = 2.7891302e-21, No Iterations 3
DILUPBiCGStab:  Solving for k, Initial residual = 6.2854028e-07, Final residual = 4.7672492e-14, No Iterations 3
ExecutionTime = 61.03 s  ClockTime = 61 s

volFieldValue minmaxdomain_scalar write:

volFieldValue minmaxdomain_vector write:

volFieldValue mindomain_scalar write:
    min(region0) of p = -0.00051368479
    min(region0) of k = 7.0134675e-12
    min(region0) of omega = 5.0537365
    min(region0) of nut = 4.7465723e-19

volFieldValue mindomain_vector write:
    min(region0) of U = (0.00013848471 -0.00094616065 -1.0104068e-16)

volFieldValue maxdomain_scalar write:
    max(region0) of p = 0.080381896
    max(region0) of k = 0.0066173426
    max(region0) of omega = 1.1944345e+09
    max(region0) of nut = 0.00013583494

volFieldValue maxdomain_vector write:
    max(region0) of U = (1.0117227 0.056164982 7.3715782e-17)

Time = 1999

DILUPBiCGStab:  Solving for Ux, Initial residual = 9.7916354e-08, Final residual = 6.6709243e-13, No Iterations 3
DILUPBiCGStab:  Solving for Uy, Initial residual = 3.7865729e-07, Final residual = 4.4941245e-11, No Iterations 3
DICPCG:  Solving for p, Initial residual = 1.0473706e-06, Final residual = 8.9337184e-09, No Iterations 68
DICPCG:  Solving for p, Initial residual = 8.9337416e-09, Final residual = 6.9750853e-09, No Iterations 3
DICPCG:  Solving for p, Initial residual = 6.9750852e-09, Final residual = 4.8461474e-09, No Iterations 3
time step continuity errors : sum local = 5.076054e-10, global = -3.3554002e-11, cumulative = -2.4596072e-08
DILUPBiCGStab:  Solving for omega, Initial residual = 6.9455588e-10, Final residual = 2.7886829e-21, No Iterations 3
DILUPBiCGStab:  Solving for k, Initial residual = 6.2820673e-07, Final residual = 4.7674151e-14, No Iterations 3
ExecutionTime = 61.06 s  ClockTime = 61 s

volFieldValue minmaxdomain_scalar write:

volFieldValue minmaxdomain_vector write:

volFieldValue mindomain_scalar write:
    min(region0) of p = -0.00051368522
    min(region0) of k = 7.0130558e-12
    min(region0) of omega = 5.0537364
    min(region0) of nut = 4.7464901e-19

volFieldValue mindomain_vector write:
    min(region0) of U = (0.0001384834 -0.00094620793 -1.0104052e-16)

volFieldValue maxdomain_scalar write:
    max(region0) of p = 0.080381521
    max(region0) of k = 0.006617345
    max(region0) of omega = 1.1944345e+09
    max(region0) of nut = 0.00013583462

volFieldValue maxdomain_vector write:
    max(region0) of U = (1.0117226 0.056164857 7.3715607e-17)

Time = 2000

DILUPBiCGStab:  Solving for Ux, Initial residual = 9.7868831e-08, Final residual = 6.6689724e-13, No Iterations 3
DILUPBiCGStab:  Solving for Uy, Initial residual = 3.7857349e-07, Final residual = 4.4960192e-11, No Iterations 3
DICPCG:  Solving for p, Initial residual = 1.0471166e-06, Final residual = 8.9305583e-09, No Iterations 68
DICPCG:  Solving for p, Initial residual = 8.9305817e-09, Final residual = 6.9732341e-09, No Iterations 3
DICPCG:  Solving for p, Initial residual = 6.9732339e-09, Final residual = 4.8476233e-09, No Iterations 3
time step continuity errors : sum local = 5.0775878e-10, global = -3.3532295e-11, cumulative = -2.4629605e-08
DILUPBiCGStab:  Solving for omega, Initial residual = 6.944671e-10, Final residual = 2.7880744e-21, No Iterations 3
DILUPBiCGStab:  Solving for k, Initial residual = 6.2787335e-07, Final residual = 4.7704188e-14, No Iterations 3
ExecutionTime = 61.11 s  ClockTime = 61 s

volFieldValue minmaxdomain_scalar write:

volFieldValue minmaxdomain_vector write:

volFieldValue mindomain_scalar write:
    min(region0) of p = -0.00051368566
    min(region0) of k = 7.0126442e-12
    min(region0) of omega = 5.0537364
    min(region0) of nut = 4.7464079e-19

volFieldValue mindomain_vector write:
    min(region0) of U = (0.0001384821 -0.00094625519 -1.0104035e-16)

volFieldValue maxdomain_scalar write:
    max(region0) of p = 0.080381147
    max(region0) of k = 0.0066173473
    max(region0) of omega = 1.1944345e+09
    max(region0) of nut = 0.0001358343

volFieldValue maxdomain_vector write:
    max(region0) of U = (1.0117226 0.056164733 7.3715433e-17)

End

/*---------------------------------------------------------------------------*\
| =========                 |                                                 |
| \\      /  F ield         | OpenFOAM: The Open Source CFD Toolbox           |
|  \\    /   O peration     | Version:  2206                                  |
|   \\  /    A nd           | Website:  www.openfoam.com                      |
|    \\/     M anipulation  |                                                 |
\*---------------------------------------------------------------------------*/
Build  : _da9441b0-20260127 OPENFOAM=2206 patch=260127 version=2206
Arch   : "LSB;label=32;scalar=64"
Exec   : simpleFoam -postProcess -func wallShearStress -latestTime
Date   : Jun 12 2026
Time   : 12:56:26
Host   : NotebookdoDan
PID    : 119873
I/O    : uncollated
Case   : /home/danilom/Trabalho_Modelagem_Turbulencia/GT2/RANS/KOmegaSST_lowRE_V1
nProcs : 1
trapFpe: Floating point exception trapping enabled (FOAM_SIGFPE).
fileModificationChecking : Monitoring run-time modified files using timeStampMaster (fileModificationSkew 5, maxFileModificationPolls 20)
allowSystemOperations : Allowing user-supplied system call operations

// * * * * * * * * * * * * * * * * * * * * * * * * * * * * * * * * * * * * * //
Create time

--> FOAM Warning : 
    From static Foam::IOstreamOption::compressionType Foam::IOstreamOption::compressionEnum(const Foam::word&, compressionType)
    in file db/IOstreams/IOstreams/IOstreamOption.C at line 115
    Unknown compression specifier 'uncompressed', using compression off
Create mesh for time = 2000


SIMPLE: convergence criteria
    field p	 tolerance 1e-06
    field U	 tolerance 1e-06
    field "(k|omega)"	 tolerance 1e-06

wallShearStress wallShearStress:
    processing all wall patches

Time = 2000
Reading field p

Reading field U

Reading/calculating face flux field phi

Selecting incompressible transport model Newtonian
Selecting turbulence model type RAS
Selecting RAS turbulence model kOmegaSST
Selecting patchDistMethod meshWave
RAS
{
    RASModel        kOmegaSST;
    turbulence      on;
    printCoeffs     on;
    alphaK1         0.85;
    alphaK2         1;
    alphaOmega1     0.5;
    alphaOmega2     0.856;
    gamma1          0.55555556;
    gamma2          0.44;
    beta1           0.075;
    beta2           0.0828;
    betaStar        0.09;
    a1              0.31;
    b1              1;
    c1              10;
    F3              false;
    decayControl    false;
    kInf            0;
    omegaInf        0;
}

No MRF models present

No finite volume options present
wallShearStress wallShearStress write:
    writing field wallShearStress
    min/max(bottom) = (-0.046051856 -0.0024381617 -1.9999914e-16), (-0.0020724089 3.8563532e-09 5.1198588e-18)

End

/*---------------------------------------------------------------------------*\
| =========                 |                                                 |
| \\      /  F ield         | OpenFOAM: The Open Source CFD Toolbox           |
|  \\    /   O peration     | Version:  2206                                  |
|   \\  /    A nd           | Website:  www.openfoam.com                      |
|    \\/     M anipulation  |                                                 |
\*---------------------------------------------------------------------------*/
Build  : _da9441b0-20260127 OPENFOAM=2206 patch=260127 version=2206
Arch   : "LSB;label=32;scalar=64"
Exec   : simpleFoam -postProcess -func yPlus -latestTime
Date   : Jun 12 2026
Time   : 12:56:26
Host   : NotebookdoDan
PID    : 119875
I/O    : uncollated
Case   : /home/danilom/Trabalho_Modelagem_Turbulencia/GT2/RANS/KOmegaSST_lowRE_V1
nProcs : 1
trapFpe: Floating point exception trapping enabled (FOAM_SIGFPE).
fileModificationChecking : Monitoring run-time modified files using timeStampMaster (fileModificationSkew 5, maxFileModificationPolls 20)
allowSystemOperations : Allowing user-supplied system call operations

// * * * * * * * * * * * * * * * * * * * * * * * * * * * * * * * * * * * * * //
Create time

--> FOAM Warning : 
    From static Foam::IOstreamOption::compressionType Foam::IOstreamOption::compressionEnum(const Foam::word&, compressionType)
    in file db/IOstreams/IOstreams/IOstreamOption.C at line 115
    Unknown compression specifier 'uncompressed', using compression off
Create mesh for time = 2000


SIMPLE: convergence criteria
    field p	 tolerance 1e-06
    field U	 tolerance 1e-06
    field "(k|omega)"	 tolerance 1e-06

Time = 2000
Reading field p

Reading field U

Reading/calculating face flux field phi

Selecting incompressible transport model Newtonian
Selecting turbulence model type RAS
Selecting RAS turbulence model kOmegaSST
Selecting patchDistMethod meshWave
RAS
{
    RASModel        kOmegaSST;
    turbulence      on;
    printCoeffs     on;
    alphaK1         0.85;
    alphaK2         1;
    alphaOmega1     0.5;
    alphaOmega2     0.856;
    gamma1          0.55555556;
    gamma2          0.44;
    beta1           0.075;
    beta2           0.0828;
    betaStar        0.09;
    a1              0.31;
    b1              1;
    c1              10;
    F3              false;
    decayControl    false;
    kInf            0;
    omegaInf        0;
}

No MRF models present

No finite volume options present
yPlus yPlus write:
    writing field yPlus
    patch bottom y+ : min = 0.003041977, max = 0.01434537, average = 0.0039138825

End

/*---------------------------------------------------------------------------*\
| =========                 |                                                 |
| \\      /  F ield         | OpenFOAM: The Open Source CFD Toolbox           |
|  \\    /   O peration     | Version:  2206                                  |
|   \\  /    A nd           | Website:  www.openfoam.com                      |
|    \\/     M anipulation  |                                                 |
\*---------------------------------------------------------------------------*/
Build  : _da9441b0-20260127 OPENFOAM=2206 patch=260127 version=2206
Arch   : "LSB;label=32;scalar=64"
Exec   : simpleFoam -postProcess -func sampleDict -latestTime
Date   : Jun 12 2026
Time   : 12:56:26
Host   : NotebookdoDan
PID    : 119877
I/O    : uncollated
Case   : /home/danilom/Trabalho_Modelagem_Turbulencia/GT2/RANS/KOmegaSST_lowRE_V1
nProcs : 1
trapFpe: Floating point exception trapping enabled (FOAM_SIGFPE).
fileModificationChecking : Monitoring run-time modified files using timeStampMaster (fileModificationSkew 5, maxFileModificationPolls 20)
allowSystemOperations : Allowing user-supplied system call operations

// * * * * * * * * * * * * * * * * * * * * * * * * * * * * * * * * * * * * * //
Create time

--> FOAM Warning : 
    From static Foam::IOstreamOption::compressionType Foam::IOstreamOption::compressionEnum(const Foam::word&, compressionType)
    in file db/IOstreams/IOstreams/IOstreamOption.C at line 115
    Unknown compression specifier 'uncompressed', using compression off
Create mesh for time = 2000


SIMPLE: convergence criteria
    field p	 tolerance 1e-06
    field U	 tolerance 1e-06
    field "(k|omega)"	 tolerance 1e-06

Sampled set:
    profile0 -> raw
    profile1 -> raw

Time = 2000
Reading field p

Reading field U

Reading/calculating face flux field phi

Selecting incompressible transport model Newtonian
Selecting turbulence model type RAS
Selecting RAS turbulence model kOmegaSST
Selecting patchDistMethod meshWave
RAS
{
    RASModel        kOmegaSST;
    turbulence      on;
    printCoeffs     on;
    alphaK1         0.85;
    alphaK2         1;
    alphaOmega1     0.5;
    alphaOmega2     0.856;
    gamma1          0.55555556;
    gamma2          0.44;
    beta1           0.075;
    beta2           0.0828;
    betaStar        0.09;
    a1              0.31;
    b1              1;
    c1              10;
    F3              false;
    decayControl    false;
    kInf            0;
    omegaInf        0;
}

No MRF models present

No finite volume options present
--> FOAM Warning : 
    From Foam::IOobjectList Foam::sampledSets::preCheckFields(unsigned int)
    in file sampledSet/sampledSets/sampledSets.C at line 219
    
Cannot find registered field matching 1(wallShearStress)

End

