/*---------------------------------------------------------------------------*\
| =========                 |                                                 |
| \\      /  F ield         | OpenFOAM: The Open Source CFD Toolbox           |
|  \\    /   O peration     | Version:  2206                                  |
|   \\  /    A nd           | Website:  www.openfoam.com                      |
|    \\/     M anipulation  |                                                 |
\*---------------------------------------------------------------------------*/
Build  : _da9441b0-20260127 OPENFOAM=2206 patch=260127 version=2206
Arch   : "LSB;label=32;scalar=64"
Exec   : simpleFoam
Date   : Jun 10 2026
Time   : 19:11:44
Host   : NotebookdoDan
PID    : 96304
I/O    : uncollated
Case   : /home/danilom/Trabalho_Modelagem_Turbulencia/GT1/turbulent_wedge
nProcs : 1
trapFpe: Floating point exception trapping enabled (FOAM_SIGFPE).
fileModificationChecking : Monitoring run-time modified files using timeStampMaster (fileModificationSkew 5, maxFileModificationPolls 20)
allowSystemOperations : Allowing user-supplied system call operations

// * * * * * * * * * * * * * * * * * * * * * * * * * * * * * * * * * * * * * //
Create time

--> FOAM Warning : 
    From static Foam::IOstreamOption::compressionType Foam::IOstreamOption::compressionEnum(const Foam::word&, compressionType)
    in file db/IOstreams/IOstreams/IOstreamOption.C at line 115
    Unknown compression specifier 'uncompressed', using compression off
Create mesh for time = 0


SIMPLE: no convergence criteria found. Calculations will run for 1000 steps.

Reading field p

Reading field U

Reading/calculating face flux field phi

Selecting incompressible transport model Newtonian
Selecting turbulence model type RAS
Selecting RAS turbulence model kEpsilon
RAS
{
    RASModel        kEpsilon;
    turbulence      on;
    printCoeffs     on;
    Cmu             0.09;
    C1              1.44;
    C2              1.92;
    C3              0;
    sigmak          1;
    sigmaEps        1.3;
}

No MRF models present

No finite volume options present

Starting time loop

wallShearStress wallShearStress1:
    processing all wall patches

Time = 1

DILUPBiCGStab:  Solving for Ux, Initial residual = 1, Final residual = 6.74759345297e-09, No Iterations 9
DILUPBiCGStab:  Solving for Uy, Initial residual = 0.644227351588, Final residual = 5.16202987181e-09, No Iterations 9
DILUPBiCGStab:  Solving for Uz, Initial residual = 0.561532138364, Final residual = 4.25790893329e-09, No Iterations 8
DICPCG:  Solving for p, Initial residual = 1, Final residual = 0.000934505780709, No Iterations 102
DICPCG:  Solving for p, Initial residual = 4.62726463428e-06, Final residual = 1.45640339603e-08, No Iterations 3
time step continuity errors : sum local = 1.00310200743e-08, global = -1.62016045728e-10, cumulative = -1.62016045728e-10
DILUPBiCGStab:  Solving for epsilon, Initial residual = 0.829714686381, Final residual = 8.01040816996e-09, No Iterations 7
DILUPBiCGStab:  Solving for k, Initial residual = 1, Final residual = 4.17221573402e-09, No Iterations 6
ExecutionTime = 0.04 s  ClockTime = 1 s

volFieldValue minmaxdomain_scalar write:
--> FOAM Warning : 
    From Foam::label Foam::functionObjects::fieldValues::volFieldValue::writeAll(const Foam::scalarField&, const Foam::scalarField&)
    in file fieldValues/volFieldValue/volFieldValue.C at line 160
    Requested field omega not found in database and not processed
--> FOAM Warning : 
    From Foam::label Foam::functionObjects::fieldValues::volFieldValue::writeAll(const Foam::scalarField&, const Foam::scalarField&)
    in file fieldValues/volFieldValue/volFieldValue.C at line 160
    Requested field nuTilda not found in database and not processed

volFieldValue minmaxdomain_vector write:

volFieldValue mindomain_scalar write:
    min(region0) of p = 0.00229224666478
    min(region0) of k = 0.000117018019399
--> FOAM Warning : 
    From Foam::label Foam::functionObjects::fieldValues::volFieldValue::writeAll(const Foam::scalarField&, const Foam::scalarField&)
    in file fieldValues/volFieldValue/volFieldValue.C at line 160
    Requested field omega not found in database and not processed
    min(region0) of nut = 1.28891874379e-06
    min(region0) of epsilon = 5.7436766931e-05
--> FOAM Warning : 
    From Foam::label Foam::functionObjects::fieldValues::volFieldValue::writeAll(const Foam::scalarField&, const Foam::scalarField&)
    in file fieldValues/volFieldValue/volFieldValue.C at line 160
    Requested field nuTilda not found in database and not processed

volFieldValue mindomain_vector write:

volFieldValue maxdomain_scalar write:
    max(region0) of p = 0.458170575922
    max(region0) of k = 0.0130043497659
--> FOAM Warning : 
    From Foam::label Foam::functionObjects::fieldValues::volFieldValue::writeAll(const Foam::scalarField&, const Foam::scalarField&)
    in file fieldValues/volFieldValue/volFieldValue.C at line 160
    Requested field omega not found in database and not processed
    max(region0) of nut = 0.00867874977308
    max(region0) of epsilon = 0.0178749357259
--> FOAM Warning : 
    From Foam::label Foam::functionObjects::fieldValues::volFieldValue::writeAll(const Foam::scalarField&, const Foam::scalarField&)
    in file fieldValues/volFieldValue/volFieldValue.C at line 160
    Requested field nuTilda not found in database and not processed

volFieldValue maxdomain_vector write:

Time = 2

DILUPBiCGStab:  Solving for Ux, Initial residual = 0.762471007725, Final residual = 7.6707300375e-09, No Iterations 7
DILUPBiCGStab:  Solving for Uy, Initial residual = 0.788290611969, Final residual = 7.8676828459e-09, No Iterations 9
DILUPBiCGStab:  Solving for Uz, Initial residual = 0.727209112184, Final residual = 2.95295848732e-09, No Iterations 8
DICPCG:  Solving for p, Initial residual = 0.0524361018975, Final residual = 9.4132962335e-05, No Iterations 101
DICPCG:  Solving for p, Initial residual = 0.00010989131938, Final residual = 6.80662370983e-07, No Iterations 3
time step continuity errors : sum local = 3.96049789184e-07, global = -1.47510595085e-08, cumulative = -1.49130755542e-08
DILUPBiCGStab:  Solving for epsilon, Initial residual = 0.30312580979, Final residual = 3.35393565804e-09, No Iterations 3
DILUPBiCGStab:  Solving for k, Initial residual = 0.708174368304, Final residual = 5.08116090448e-09, No Iterations 4
ExecutionTime = 0.07 s  ClockTime = 1 s

volFieldValue minmaxdomain_scalar write:
--> FOAM Warning : 
    From Foam::label Foam::functionObjects::fieldValues::volFieldValue::writeAll(const Foam::scalarField&, const Foam::scalarField&)
    in file fieldValues/volFieldValue/volFieldValue.C at line 160
    Requested field omega not found in database and not processed
--> FOAM Warning : 
    From Foam::label Foam::functionObjects::fieldValues::volFieldValue::writeAll(const Foam::scalarField&, const Foam::scalarField&)
    in file fieldValues/volFieldValue/volFieldValue.C at line 160
    Requested field nuTilda not found in database and not processed

volFieldValue minmaxdomain_vector write:

volFieldValue mindomain_scalar write:
    min(region0) of p = 0.00183393052233
    min(region0) of k = 2.48500024171e-05
--> FOAM Warning : 
    From Foam::label Foam::functionObjects::fieldValues::volFieldValue::writeAll(const Foam::scalarField&, const Foam::scalarField&)
    in file fieldValues/volFieldValue/volFieldValue.C at line 160
    Requested field omega not found in database and not processed
    min(region0) of nut = 1.96372905411e-09
    min(region0) of epsilon = 3.80453183211e-05
--> FOAM Warning : 
    From Foam::label Foam::functionObjects::fieldValues::volFieldValue::writeAll(const Foam::scalarField&, const Foam::scalarField&)
    in file fieldValues/volFieldValue/volFieldValue.C at line 160
    Requested field nuTilda not found in database and not processed

volFieldValue mindomain_vector write:

volFieldValue maxdomain_scalar write:
    max(region0) of p = 0.424058924943
    max(region0) of k = 0.0111984911676
--> FOAM Warning : 
    From Foam::label Foam::functionObjects::fieldValues::volFieldValue::writeAll(const Foam::scalarField&, const Foam::scalarField&)
    in file fieldValues/volFieldValue/volFieldValue.C at line 160
    Requested field omega not found in database and not processed
    max(region0) of nut = 2.60312631218e-05
    max(region0) of epsilon = 1.41565914972
--> FOAM Warning : 
    From Foam::label Foam::functionObjects::fieldValues::volFieldValue::writeAll(const Foam::scalarField&, const Foam::scalarField&)
    in file fieldValues/volFieldValue/volFieldValue.C at line 160
    Requested field nuTilda not found in database and not processed

volFieldValue maxdomain_vector write:

Time = 3

DILUPBiCGStab:  Solving for Ux, Initial residual = 0.250894779338, Final residual = 6.37445611567e-09, No Iterations 8
DILUPBiCGStab:  Solving for Uy, Initial residual = 0.692176800425, Final residual = 7.46570797275e-09, No Iterations 10
DILUPBiCGStab:  Solving for Uz, Initial residual = 0.668820315864, Final residual = 4.60277172747e-09, No Iterations 8
DICPCG:  Solving for p, Initial residual = 0.148731065696, Final residual = 0.00145545616905, No Iterations 9
DICPCG:  Solving for p, Initial residual = 0.00166185240512, Final residual = 1.20007142368e-05, No Iterations 100
time step continuity errors : sum local = 2.04861421379e-05, global = 8.77991941617e-08, cumulative = 7.28861186076e-08
DILUPBiCGStab:  Solving for epsilon, Initial residual = 0.617838865065, Final residual = 8.32678868949e-10, No Iterations 3
bounding epsilon, min: -0.000120588338154 max: 1.13126670478 average: 0.0458012413992
DILUPBiCGStab:  Solving for k, Initial residual = 0.216596693348, Final residual = 6.02102968619e-09, No Iterations 5
ExecutionTime = 0.1 s  ClockTime = 1 s

volFieldValue minmaxdomain_scalar write:
--> FOAM Warning : 
    From Foam::label Foam::functionObjects::fieldValues::volFieldValue::writeAll(const Foam::scalarField&, const Foam::scalarField&)
    in file fieldValues/volFieldValue/volFieldValue.C at line 160
    Requested field omega not found in database and not processed
--> FOAM Warning : 
    From Foam::label Foam::functionObjects::fieldValues::volFieldValue::writeAll(const Foam::scalarField&, const Foam::scalarField&)
    in file fieldValues/volFieldValue/volFieldValue.C at line 160
    Requested field nuTilda not found in database and not processed

volFieldValue minmaxdomain_vector write:

volFieldValue mindomain_scalar write:
    min(region0) of p = 0.00193732512436
    min(region0) of k = 3.92025045969e-06
--> FOAM Warning : 
    From Foam::label Foam::functionObjects::fieldValues::volFieldValue::writeAll(const Foam::scalarField&, const Foam::scalarField&)
    in file fieldValues/volFieldValue/volFieldValue.C at line 160
    Requested field omega not found in database and not processed
    min(region0) of nut = 3.09631955975e-10
    min(region0) of epsilon = 1.11542529314e-06
--> FOAM Warning : 
    From Foam::label Foam::functionObjects::fieldValues::volFieldValue::writeAll(const Foam::scalarField&, const Foam::scalarField&)
    in file fieldValues/volFieldValue/volFieldValue.C at line 160
    Requested field nuTilda not found in database and not processed

volFieldValue mindomain_vector write:

volFieldValue maxdomain_scalar write:
    max(region0) of p = 0.460775554244
    max(region0) of k = 0.0319035214657
--> FOAM Warning : 
    From Foam::label Foam::functionObjects::fieldValues::volFieldValue::writeAll(const Foam::scalarField&, const Foam::scalarField&)
    in file fieldValues/volFieldValue/volFieldValue.C at line 160
    Requested field omega not found in database and not processed
    max(region0) of nut = 0.00203093989893
    max(region0) of epsilon = 1.13126670478
--> FOAM Warning : 
    From Foam::label Foam::functionObjects::fieldValues::volFieldValue::writeAll(const Foam::scalarField&, const Foam::scalarField&)
    in file fieldValues/volFieldValue/volFieldValue.C at line 160
    Requested field nuTilda not found in database and not processed

volFieldValue maxdomain_vector write:

Time = 4

DILUPBiCGStab:  Solving for Ux, Initial residual = 0.0718475563409, Final residual = 5.77292826294e-09, No Iterations 8
DILUPBiCGStab:  Solving for Uy, Initial residual = 0.774081658087, Final residual = 4.50384760005e-09, No Iterations 9
DILUPBiCGStab:  Solving for Uz, Initial residual = 0.656162596684, Final residual = 4.29894691136e-09, No Iterations 8
DICPCG:  Solving for p, Initial residual = 0.102073336228, Final residual = 0.000968893449013, No Iterations 17
DICPCG:  Solving for p, Initial residual = 0.0010360907949, Final residual = 1.45160691809e-06, No Iterations 100
time step continuity errors : sum local = 1.72044803252e-06, global = 6.03498949902e-09, cumulative = 7.89211081066e-08
DILUPBiCGStab:  Solving for epsilon, Initial residual = 0.0409786221196, Final residual = 5.99763054122e-09, No Iterations 3
bounding epsilon, min: -5.30043347311e-05 max: 5.43980925166 average: 0.0777190639196
DILUPBiCGStab:  Solving for k, Initial residual = 0.149249028878, Final residual = 6.97548798147e-09, No Iterations 5
ExecutionTime = 0.12 s  ClockTime = 1 s

volFieldValue minmaxdomain_scalar write:
--> FOAM Warning : 
    From Foam::label Foam::functionObjects::fieldValues::volFieldValue::writeAll(const Foam::scalarField&, const Foam::scalarField&)
    in file fieldValues/volFieldValue/volFieldValue.C at line 160
    Requested field omega not found in database and not processed
--> FOAM Warning : 
    From Foam::label Foam::functionObjects::fieldValues::volFieldValue::writeAll(const Foam::scalarField&, const Foam::scalarField&)
    in file fieldValues/volFieldValue/volFieldValue.C at line 160
    Requested field nuTilda not found in database and not processed

volFieldValue minmaxdomain_vector write:

volFieldValue mindomain_scalar write:
    min(region0) of p = 0.00171020857101
    min(region0) of k = 1.52506968478e-06
--> FOAM Warning : 
    From Foam::label Foam::functionObjects::fieldValues::volFieldValue::writeAll(const Foam::scalarField&, const Foam::scalarField&)
    in file fieldValues/volFieldValue/volFieldValue.C at line 160
    Requested field omega not found in database and not processed
    min(region0) of nut = 6.18147358602e-10
    min(region0) of epsilon = 8.11509564129e-07
--> FOAM Warning : 
    From Foam::label Foam::functionObjects::fieldValues::volFieldValue::writeAll(const Foam::scalarField&, const Foam::scalarField&)
    in file fieldValues/volFieldValue/volFieldValue.C at line 160
    Requested field nuTilda not found in database and not processed

volFieldValue mindomain_vector write:

volFieldValue maxdomain_scalar write:
    max(region0) of p = 0.44741505882
    max(region0) of k = 0.032090849077
--> FOAM Warning : 
    From Foam::label Foam::functionObjects::fieldValues::volFieldValue::writeAll(const Foam::scalarField&, const Foam::scalarField&)
    in file fieldValues/volFieldValue/volFieldValue.C at line 160
    Requested field omega not found in database and not processed
    max(region0) of nut = 0.00165072680221
    max(region0) of epsilon = 5.43980925166
--> FOAM Warning : 
    From Foam::label Foam::functionObjects::fieldValues::volFieldValue::writeAll(const Foam::scalarField&, const Foam::scalarField&)
    in file fieldValues/volFieldValue/volFieldValue.C at line 160
    Requested field nuTilda not found in database and not processed

volFieldValue maxdomain_vector write:

Time = 5

DILUPBiCGStab:  Solving for Ux, Initial residual = 0.0546613076844, Final residual = 6.18923985717e-09, No Iterations 8
DILUPBiCGStab:  Solving for Uy, Initial residual = 0.420919372654, Final residual = 9.48164456104e-09, No Iterations 9
DILUPBiCGStab:  Solving for Uz, Initial residual = 0.669644962573, Final residual = 7.23669726871e-09, No Iterations 8
DICPCG:  Solving for p, Initial residual = 0.108571266247, Final residual = 0.000878691249845, No Iterations 96
DICPCG:  Solving for p, Initial residual = 0.00105652282255, Final residual = 8.83324473698e-06, No Iterations 99
time step continuity errors : sum local = 9.90571698271e-06, global = 6.10938409638e-08, cumulative = 1.4001494907e-07
DILUPBiCGStab:  Solving for epsilon, Initial residual = 0.136521615549, Final residual = 2.5987913024e-09, No Iterations 3
bounding epsilon, min: -0.00106347585992 max: 5.48779082943 average: 0.0472198257413
DILUPBiCGStab:  Solving for k, Initial residual = 0.169886483622, Final residual = 4.18122707864e-09, No Iterations 5
ExecutionTime = 0.14 s  ClockTime = 1 s

volFieldValue minmaxdomain_scalar write:
--> FOAM Warning : 
    From Foam::label Foam::functionObjects::fieldValues::volFieldValue::writeAll(const Foam::scalarField&, const Foam::scalarField&)
    in file fieldValues/volFieldValue/volFieldValue.C at line 160
    Requested field omega not found in database and not processed
--> FOAM Warning : 
    From Foam::label Foam::functionObjects::fieldValues::volFieldValue::writeAll(const Foam::scalarField&, const Foam::scalarField&)
    in file fieldValues/volFieldValue/volFieldValue.C at line 160
    Requested field nuTilda not found in database and not processed

volFieldValue minmaxdomain_vector write:

volFieldValue mindomain_scalar write:
    min(region0) of p = 0.00133643998362
    min(region0) of k = 6.22345154049e-06
--> FOAM Warning : 
    From Foam::label Foam::functionObjects::fieldValues::volFieldValue::writeAll(const Foam::scalarField&, const Foam::scalarField&)
    in file fieldValues/volFieldValue/volFieldValue.C at line 160
    Requested field omega not found in database and not processed
    min(region0) of nut = 1.99528023455e-08
    min(region0) of epsilon = 9.97468503185e-07
--> FOAM Warning : 
    From Foam::label Foam::functionObjects::fieldValues::volFieldValue::writeAll(const Foam::scalarField&, const Foam::scalarField&)
    in file fieldValues/volFieldValue/volFieldValue.C at line 160
    Requested field nuTilda not found in database and not processed

volFieldValue mindomain_vector write:

volFieldValue maxdomain_scalar write:
    max(region0) of p = 0.395477964959
    max(region0) of k = 0.0326291366322
--> FOAM Warning : 
    From Foam::label Foam::functionObjects::fieldValues::volFieldValue::writeAll(const Foam::scalarField&, const Foam::scalarField&)
    in file fieldValues/volFieldValue/volFieldValue.C at line 160
    Requested field omega not found in database and not processed
    max(region0) of nut = 0.000538330944543
    max(region0) of epsilon = 5.48779082943
--> FOAM Warning : 
    From Foam::label Foam::functionObjects::fieldValues::volFieldValue::writeAll(const Foam::scalarField&, const Foam::scalarField&)
    in file fieldValues/volFieldValue/volFieldValue.C at line 160
    Requested field nuTilda not found in database and not processed

volFieldValue maxdomain_vector write:

Time = 6

DILUPBiCGStab:  Solving for Ux, Initial residual = 0.0322698411676, Final residual = 5.78722324467e-09, No Iterations 8
DILUPBiCGStab:  Solving for Uy, Initial residual = 0.50649807439, Final residual = 7.651296412e-09, No Iterations 9
DILUPBiCGStab:  Solving for Uz, Initial residual = 0.686091865429, Final residual = 5.62634812151e-09, No Iterations 8
DICPCG:  Solving for p, Initial residual = 0.100694750367, Final residual = 0.000919159170194, No Iterations 16
DICPCG:  Solving for p, Initial residual = 0.000988178777453, Final residual = 4.06341662695e-06, No Iterations 100
time step continuity errors : sum local = 3.89023860069e-06, global = -2.11285308141e-08, cumulative = 1.18886418256e-07
DILUPBiCGStab:  Solving for epsilon, Initial residual = 0.0272866055777, Final residual = 9.92988431151e-09, No Iterations 4
DILUPBiCGStab:  Solving for k, Initial residual = 0.0957986777207, Final residual = 1.50822913973e-09, No Iterations 6
ExecutionTime = 0.16 s  ClockTime = 1 s

volFieldValue minmaxdomain_scalar write:
--> FOAM Warning : 
    From Foam::label Foam::functionObjects::fieldValues::volFieldValue::writeAll(const Foam::scalarField&, const Foam::scalarField&)
    in file fieldValues/volFieldValue/volFieldValue.C at line 160
    Requested field omega not found in database and not processed
--> FOAM Warning : 
    From Foam::label Foam::functionObjects::fieldValues::volFieldValue::writeAll(const Foam::scalarField&, const Foam::scalarField&)
    in file fieldValues/volFieldValue/volFieldValue.C at line 160
    Requested field nuTilda not found in database and not processed

volFieldValue minmaxdomain_vector write:

volFieldValue mindomain_scalar write:
    min(region0) of p = 0.00120007543541
    min(region0) of k = 1.46509727288e-06
--> FOAM Warning : 
    From Foam::label Foam::functionObjects::fieldValues::volFieldValue::writeAll(const Foam::scalarField&, const Foam::scalarField&)
    in file fieldValues/volFieldValue/volFieldValue.C at line 160
    Requested field omega not found in database and not processed
    min(region0) of nut = 1.89427029398e-10
    min(region0) of epsilon = 1.46191773231e-05
--> FOAM Warning : 
    From Foam::label Foam::functionObjects::fieldValues::volFieldValue::writeAll(const Foam::scalarField&, const Foam::scalarField&)
    in file fieldValues/volFieldValue/volFieldValue.C at line 160
    Requested field nuTilda not found in database and not processed

volFieldValue mindomain_vector write:

volFieldValue maxdomain_scalar write:
    max(region0) of p = 0.381556876141
    max(region0) of k = 0.0322559189301
--> FOAM Warning : 
    From Foam::label Foam::functionObjects::fieldValues::volFieldValue::writeAll(const Foam::scalarField&, const Foam::scalarField&)
    in file fieldValues/volFieldValue/volFieldValue.C at line 160
    Requested field omega not found in database and not processed
    max(region0) of nut = 3.5431067706e-05
    max(region0) of epsilon = 5.62644543276
--> FOAM Warning : 
    From Foam::label Foam::functionObjects::fieldValues::volFieldValue::writeAll(const Foam::scalarField&, const Foam::scalarField&)
    in file fieldValues/volFieldValue/volFieldValue.C at line 160
    Requested field nuTilda not found in database and not processed

volFieldValue maxdomain_vector write:

Time = 7

DILUPBiCGStab:  Solving for Ux, Initial residual = 0.022037722908, Final residual = 7.18640152801e-09, No Iterations 7
DILUPBiCGStab:  Solving for Uy, Initial residual = 0.397857230925, Final residual = 2.42983735949e-09, No Iterations 10
DILUPBiCGStab:  Solving for Uz, Initial residual = 0.666140840391, Final residual = 2.75737147556e-09, No Iterations 8
DICPCG:  Solving for p, Initial residual = 0.101625799337, Final residual = 0.000973616759778, No Iterations 12
DICPCG:  Solving for p, Initial residual = 0.00104292752163, Final residual = 8.05529306211e-06, No Iterations 99
time step continuity errors : sum local = 6.82291122287e-06, global = -4.62034659241e-08, cumulative = 7.26829523322e-08
DILUPBiCGStab:  Solving for epsilon, Initial residual = 0.0363149674924, Final residual = 5.9186809414e-09, No Iterations 3
bounding epsilon, min: -0.00217721228612 max: 5.5301876231 average: 0.026834164711
DILUPBiCGStab:  Solving for k, Initial residual = 0.0699388685837, Final residual = 7.15532851126e-09, No Iterations 5
ExecutionTime = 0.19 s  ClockTime = 1 s

volFieldValue minmaxdomain_scalar write:
--> FOAM Warning : 
    From Foam::label Foam::functionObjects::fieldValues::volFieldValue::writeAll(const Foam::scalarField&, const Foam::scalarField&)
    in file fieldValues/volFieldValue/volFieldValue.C at line 160
    Requested field omega not found in database and not processed
--> FOAM Warning : 
    From Foam::label Foam::functionObjects::fieldValues::volFieldValue::writeAll(const Foam::scalarField&, const Foam::scalarField&)
    in file fieldValues/volFieldValue/volFieldValue.C at line 160
    Requested field nuTilda not found in database and not processed

volFieldValue minmaxdomain_vector write:

volFieldValue mindomain_scalar write:
    min(region0) of p = 0.00114840699007
    min(region0) of k = 1.34191864073e-06
--> FOAM Warning : 
    From Foam::label Foam::functionObjects::fieldValues::volFieldValue::writeAll(const Foam::scalarField&, const Foam::scalarField&)
    in file fieldValues/volFieldValue/volFieldValue.C at line 160
    Requested field omega not found in database and not processed
    min(region0) of nut = 5.95825158685e-10
    min(region0) of epsilon = 1.05642556196e-06
--> FOAM Warning : 
    From Foam::label Foam::functionObjects::fieldValues::volFieldValue::writeAll(const Foam::scalarField&, const Foam::scalarField&)
    in file fieldValues/volFieldValue/volFieldValue.C at line 160
    Requested field nuTilda not found in database and not processed

volFieldValue mindomain_vector write:

volFieldValue maxdomain_scalar write:
    max(region0) of p = 0.376107683489
    max(region0) of k = 0.0316320611591
--> FOAM Warning : 
    From Foam::label Foam::functionObjects::fieldValues::volFieldValue::writeAll(const Foam::scalarField&, const Foam::scalarField&)
    in file fieldValues/volFieldValue/volFieldValue.C at line 160
    Requested field omega not found in database and not processed
    max(region0) of nut = 0.00235758627167
    max(region0) of epsilon = 5.5301876231
--> FOAM Warning : 
    From Foam::label Foam::functionObjects::fieldValues::volFieldValue::writeAll(const Foam::scalarField&, const Foam::scalarField&)
    in file fieldValues/volFieldValue/volFieldValue.C at line 160
    Requested field nuTilda not found in database and not processed

volFieldValue maxdomain_vector write:

Time = 8

DILUPBiCGStab:  Solving for Ux, Initial residual = 0.0182307403292, Final residual = 7.09361305402e-09, No Iterations 7
DILUPBiCGStab:  Solving for Uy, Initial residual = 0.379729582734, Final residual = 6.33038448464e-09, No Iterations 9
DILUPBiCGStab:  Solving for Uz, Initial residual = 0.624454105787, Final residual = 2.67581890603e-09, No Iterations 8
DICPCG:  Solving for p, Initial residual = 0.082263596673, Final residual = 0.000787895031497, No Iterations 26
DICPCG:  Solving for p, Initial residual = 0.000827996389794, Final residual = 6.46641720176e-06, No Iterations 99
time step continuity errors : sum local = 4.79694840484e-06, global = 1.0318819803e-08, cumulative = 8.30017721351e-08
DILUPBiCGStab:  Solving for epsilon, Initial residual = 0.0137976657472, Final residual = 8.99457907415e-09, No Iterations 4
DILUPBiCGStab:  Solving for k, Initial residual = 0.0574366396568, Final residual = 6.52517642318e-09, No Iterations 5
ExecutionTime = 0.21 s  ClockTime = 1 s

volFieldValue minmaxdomain_scalar write:
--> FOAM Warning : 
    From Foam::label Foam::functionObjects::fieldValues::volFieldValue::writeAll(const Foam::scalarField&, const Foam::scalarField&)
    in file fieldValues/volFieldValue/volFieldValue.C at line 160
    Requested field omega not found in database and not processed
--> FOAM Warning : 
    From Foam::label Foam::functionObjects::fieldValues::volFieldValue::writeAll(const Foam::scalarField&, const Foam::scalarField&)
    in file fieldValues/volFieldValue/volFieldValue.C at line 160
    Requested field nuTilda not found in database and not processed

volFieldValue minmaxdomain_vector write:

volFieldValue mindomain_scalar write:
    min(region0) of p = 0.00111605366569
    min(region0) of k = 1.61462917009e-06
--> FOAM Warning : 
    From Foam::label Foam::functionObjects::fieldValues::volFieldValue::writeAll(const Foam::scalarField&, const Foam::scalarField&)
    in file fieldValues/volFieldValue/volFieldValue.C at line 160
    Requested field omega not found in database and not processed
    min(region0) of nut = 1.3566713984e-09
    min(region0) of epsilon = 1.11534243433e-05
--> FOAM Warning : 
    From Foam::label Foam::functionObjects::fieldValues::volFieldValue::writeAll(const Foam::scalarField&, const Foam::scalarField&)
    in file fieldValues/volFieldValue/volFieldValue.C at line 160
    Requested field nuTilda not found in database and not processed

volFieldValue mindomain_vector write:

volFieldValue maxdomain_scalar write:
    max(region0) of p = 0.392522156602
    max(region0) of k = 0.0317629986873
--> FOAM Warning : 
    From Foam::label Foam::functionObjects::fieldValues::volFieldValue::writeAll(const Foam::scalarField&, const Foam::scalarField&)
    in file fieldValues/volFieldValue/volFieldValue.C at line 160
    Requested field omega not found in database and not processed
    max(region0) of nut = 3.8836652117e-05
    max(region0) of epsilon = 5.37052787446
--> FOAM Warning : 
    From Foam::label Foam::functionObjects::fieldValues::volFieldValue::writeAll(const Foam::scalarField&, const Foam::scalarField&)
    in file fieldValues/volFieldValue/volFieldValue.C at line 160
    Requested field nuTilda not found in database and not processed

volFieldValue maxdomain_vector write:

Time = 9

DILUPBiCGStab:  Solving for Ux, Initial residual = 0.0159219946205, Final residual = 8.1126551861e-09, No Iterations 7
DILUPBiCGStab:  Solving for Uy, Initial residual = 0.363203092837, Final residual = 2.97379901863e-09, No Iterations 10
DILUPBiCGStab:  Solving for Uz, Initial residual = 0.609396990502, Final residual = 2.2349195123e-09, No Iterations 8
DICPCG:  Solving for p, Initial residual = 0.128305816486, Final residual = 0.00121341720177, No Iterations 10
DICPCG:  Solving for p, Initial residual = 0.00125092660023, Final residual = 7.11134149077e-06, No Iterations 100
time step continuity errors : sum local = 5.34563138239e-06, global = -2.39666029127e-08, cumulative = 5.90351692225e-08
DILUPBiCGStab:  Solving for epsilon, Initial residual = 0.0194747166535, Final residual = 5.89544423126e-09, No Iterations 3
bounding epsilon, min: -0.00123333675781 max: 5.40390844596 average: 0.0246103623351
DILUPBiCGStab:  Solving for k, Initial residual = 0.0596157241467, Final residual = 5.28874569775e-09, No Iterations 5
ExecutionTime = 0.23 s  ClockTime = 1 s

volFieldValue minmaxdomain_scalar write:
--> FOAM Warning : 
    From Foam::label Foam::functionObjects::fieldValues::volFieldValue::writeAll(const Foam::scalarField&, const Foam::scalarField&)
    in file fieldValues/volFieldValue/volFieldValue.C at line 160
    Requested field omega not found in database and not processed
--> FOAM Warning : 
    From Foam::label Foam::functionObjects::fieldValues::volFieldValue::writeAll(const Foam::scalarField&, const Foam::scalarField&)
    in file fieldValues/volFieldValue/volFieldValue.C at line 160
    Requested field nuTilda not found in database and not processed

volFieldValue minmaxdomain_vector write:

volFieldValue mindomain_scalar write:
    min(region0) of p = 0.00109512018348
    min(region0) of k = 1.48676534378e-05
--> FOAM Warning : 
    From Foam::label Foam::functionObjects::fieldValues::volFieldValue::writeAll(const Foam::scalarField&, const Foam::scalarField&)
    in file fieldValues/volFieldValue/volFieldValue.C at line 160
    Requested field omega not found in database and not processed
    min(region0) of nut = 6.28450858634e-08
    min(region0) of epsilon = 1.18665019485e-06
--> FOAM Warning : 
    From Foam::label Foam::functionObjects::fieldValues::volFieldValue::writeAll(const Foam::scalarField&, const Foam::scalarField&)
    in file fieldValues/volFieldValue/volFieldValue.C at line 160
    Requested field nuTilda not found in database and not processed

volFieldValue mindomain_vector write:

volFieldValue maxdomain_scalar write:
    max(region0) of p = 0.388215265654
    max(region0) of k = 0.0315446824649
--> FOAM Warning : 
    From Foam::label Foam::functionObjects::fieldValues::volFieldValue::writeAll(const Foam::scalarField&, const Foam::scalarField&)
    in file fieldValues/volFieldValue/volFieldValue.C at line 160
    Requested field omega not found in database and not processed
    max(region0) of nut = 0.00301168424473
    max(region0) of epsilon = 5.40390844596
--> FOAM Warning : 
    From Foam::label Foam::functionObjects::fieldValues::volFieldValue::writeAll(const Foam::scalarField&, const Foam::scalarField&)
    in file fieldValues/volFieldValue/volFieldValue.C at line 160
    Requested field nuTilda not found in database and not processed

volFieldValue maxdomain_vector write:

Time = 10

DILUPBiCGStab:  Solving for Ux, Initial residual = 0.0147063102767, Final residual = 5.54507991124e-09, No Iterations 7
DILUPBiCGStab:  Solving for Uy, Initial residual = 0.354779284246, Final residual = 6.93846762165e-09, No Iterations 9
DILUPBiCGStab:  Solving for Uz, Initial residual = 0.601254367877, Final residual = 4.11659205316e-09, No Iterations 7
DICPCG:  Solving for p, Initial residual = 0.076191726964, Final residual = 0.000694493315041, No Iterations 30
DICPCG:  Solving for p, Initial residual = 0.000727263471194, Final residual = 4.41278627714e-06, No Iterations 100
time step continuity errors : sum local = 2.91597639735e-06, global = -4.29907423099e-09, cumulative = 5.47360949915e-08
DILUPBiCGStab:  Solving for epsilon, Initial residual = 0.0115217472373, Final residual = 3.98559518309e-09, No Iterations 4
DILUPBiCGStab:  Solving for k, Initial residual = 0.0564253568028, Final residual = 9.81502093048e-09, No Iterations 4
ExecutionTime = 0.24 s  ClockTime = 1 s

volFieldValue minmaxdomain_scalar write:
--> FOAM Warning : 
    From Foam::label Foam::functionObjects::fieldValues::volFieldValue::writeAll(const Foam::scalarField&, const Foam::scalarField&)
    in file fieldValues/volFieldValue/volFieldValue.C at line 160
    Requested field omega not found in database and not processed
--> FOAM Warning : 
    From Foam::label Foam::functionObjects::fieldValues::volFieldValue::writeAll(const Foam::scalarField&, const Foam::scalarField&)
    in file fieldValues/volFieldValue/volFieldValue.C at line 160
    Requested field nuTilda not found in database and not processed

volFieldValue minmaxdomain_vector write:

volFieldValue mindomain_scalar write:
    min(region0) of p = 0.0010790610914
    min(region0) of k = 8.38048478706e-06
--> FOAM Warning : 
    From Foam::label Foam::functionObjects::fieldValues::volFieldValue::writeAll(const Foam::scalarField&, const Foam::scalarField&)
    in file fieldValues/volFieldValue/volFieldValue.C at line 160
    Requested field omega not found in database and not processed
    min(region0) of nut = 6.93546546362e-09
    min(region0) of epsilon = 8.94923489378e-06
--> FOAM Warning : 
    From Foam::label Foam::functionObjects::fieldValues::volFieldValue::writeAll(const Foam::scalarField&, const Foam::scalarField&)
    in file fieldValues/volFieldValue/volFieldValue.C at line 160
    Requested field nuTilda not found in database and not processed

volFieldValue mindomain_vector write:

volFieldValue maxdomain_scalar write:
    max(region0) of p = 0.403955652603
    max(region0) of k = 0.0315804089894
--> FOAM Warning : 
    From Foam::label Foam::functionObjects::fieldValues::volFieldValue::writeAll(const Foam::scalarField&, const Foam::scalarField&)
    in file fieldValues/volFieldValue/volFieldValue.C at line 160
    Requested field omega not found in database and not processed
    max(region0) of nut = 4.12773809238e-05
    max(region0) of epsilon = 5.34829036567
--> FOAM Warning : 
    From Foam::label Foam::functionObjects::fieldValues::volFieldValue::writeAll(const Foam::scalarField&, const Foam::scalarField&)
    in file fieldValues/volFieldValue/volFieldValue.C at line 160
    Requested field nuTilda not found in database and not processed

volFieldValue maxdomain_vector write:

Time = 11

DILUPBiCGStab:  Solving for Ux, Initial residual = 0.0135528772193, Final residual = 7.95244144786e-09, No Iterations 7
DILUPBiCGStab:  Solving for Uy, Initial residual = 0.349261707255, Final residual = 3.89651693353e-09, No Iterations 10
DILUPBiCGStab:  Solving for Uz, Initial residual = 0.589853675695, Final residual = 3.41836116634e-09, No Iterations 7
DICPCG:  Solving for p, Initial residual = 0.112020535592, Final residual = 0.00105595975584, No Iterations 15
DICPCG:  Solving for p, Initial residual = 0.00108358204452, Final residual = 2.52387471585e-06, No Iterations 100
time step continuity errors : sum local = 1.8101100384e-06, global = 4.22085005213e-09, cumulative = 5.89569450436e-08
DILUPBiCGStab:  Solving for epsilon, Initial residual = 0.0147253094711, Final residual = 4.78252955416e-09, No Iterations 3
bounding epsilon, min: -0.00266167764771 max: 5.35737889833 average: 0.0257542401828
DILUPBiCGStab:  Solving for k, Initial residual = 0.0614485570538, Final residual = 7.82400135423e-09, No Iterations 5
ExecutionTime = 0.26 s  ClockTime = 1 s

volFieldValue minmaxdomain_scalar write:
--> FOAM Warning : 
    From Foam::label Foam::functionObjects::fieldValues::volFieldValue::writeAll(const Foam::scalarField&, const Foam::scalarField&)
    in file fieldValues/volFieldValue/volFieldValue.C at line 160
    Requested field omega not found in database and not processed
--> FOAM Warning : 
    From Foam::label Foam::functionObjects::fieldValues::volFieldValue::writeAll(const Foam::scalarField&, const Foam::scalarField&)
    in file fieldValues/volFieldValue/volFieldValue.C at line 160
    Requested field nuTilda not found in database and not processed

volFieldValue minmaxdomain_vector write:

volFieldValue mindomain_scalar write:
    min(region0) of p = 0.00108197642343
    min(region0) of k = 1.7019205271e-05
--> FOAM Warning : 
    From Foam::label Foam::functionObjects::fieldValues::volFieldValue::writeAll(const Foam::scalarField&, const Foam::scalarField&)
    in file fieldValues/volFieldValue/volFieldValue.C at line 160
    Requested field omega not found in database and not processed
    min(region0) of nut = 1.99818110397e-07
    min(region0) of epsilon = 7.56368995303e-07
--> FOAM Warning : 
    From Foam::label Foam::functionObjects::fieldValues::volFieldValue::writeAll(const Foam::scalarField&, const Foam::scalarField&)
    in file fieldValues/volFieldValue/volFieldValue.C at line 160
    Requested field nuTilda not found in database and not processed

volFieldValue mindomain_vector write:

volFieldValue maxdomain_scalar write:
    max(region0) of p = 0.404287221865
    max(region0) of k = 0.0314983039359
--> FOAM Warning : 
    From Foam::label Foam::functionObjects::fieldValues::volFieldValue::writeAll(const Foam::scalarField&, const Foam::scalarField&)
    in file fieldValues/volFieldValue/volFieldValue.C at line 160
    Requested field omega not found in database and not processed
    max(region0) of nut = 0.00309298382307
    max(region0) of epsilon = 5.35737889833
--> FOAM Warning : 
    From Foam::label Foam::functionObjects::fieldValues::volFieldValue::writeAll(const Foam::scalarField&, const Foam::scalarField&)
    in file fieldValues/volFieldValue/volFieldValue.C at line 160
    Requested field nuTilda not found in database and not processed

volFieldValue maxdomain_vector write:

Time = 12

DILUPBiCGStab:  Solving for Ux, Initial residual = 0.0130479328254, Final residual = 4.33040294742e-09, No Iterations 7
DILUPBiCGStab:  Solving for Uy, Initial residual = 0.39067055476, Final residual = 5.47634448114e-09, No Iterations 9
DILUPBiCGStab:  Solving for Uz, Initial residual = 0.576953767272, Final residual = 1.92792292424e-09, No Iterations 8
DICPCG:  Solving for p, Initial residual = 0.0598057757619, Final residual = 0.00058594738477, No Iterations 65
DICPCG:  Solving for p, Initial residual = 0.000602225413836, Final residual = 6.00408701097e-06, No Iterations 99
time step continuity errors : sum local = 3.67705496725e-06, global = 2.09161153309e-08, cumulative = 7.98730603745e-08
DILUPBiCGStab:  Solving for epsilon, Initial residual = 0.01256306628, Final residual = 2.92515657495e-09, No Iterations 4
DILUPBiCGStab:  Solving for k, Initial residual = 0.0646406592091, Final residual = 3.37529406916e-09, No Iterations 5
ExecutionTime = 0.28 s  ClockTime = 1 s

volFieldValue minmaxdomain_scalar write:
--> FOAM Warning : 
    From Foam::label Foam::functionObjects::fieldValues::volFieldValue::writeAll(const Foam::scalarField&, const Foam::scalarField&)
    in file fieldValues/volFieldValue/volFieldValue.C at line 160
    Requested field omega not found in database and not processed
--> FOAM Warning : 
    From Foam::label Foam::functionObjects::fieldValues::volFieldValue::writeAll(const Foam::scalarField&, const Foam::scalarField&)
    in file fieldValues/volFieldValue/volFieldValue.C at line 160
    Requested field nuTilda not found in database and not processed

volFieldValue minmaxdomain_vector write:

volFieldValue mindomain_scalar write:
    min(region0) of p = 0.0010952189683
    min(region0) of k = 1.0401043933e-05
--> FOAM Warning : 
    From Foam::label Foam::functionObjects::fieldValues::volFieldValue::writeAll(const Foam::scalarField&, const Foam::scalarField&)
    in file fieldValues/volFieldValue/volFieldValue.C at line 160
    Requested field omega not found in database and not processed
    min(region0) of nut = 7.70195133155e-09
    min(region0) of epsilon = 7.39989278276e-06
--> FOAM Warning : 
    From Foam::label Foam::functionObjects::fieldValues::volFieldValue::writeAll(const Foam::scalarField&, const Foam::scalarField&)
    in file fieldValues/volFieldValue/volFieldValue.C at line 160
    Requested field nuTilda not found in database and not processed

volFieldValue mindomain_vector write:

volFieldValue maxdomain_scalar write:
    max(region0) of p = 0.420476552397
    max(region0) of k = 0.0315218105949
--> FOAM Warning : 
    From Foam::label Foam::functionObjects::fieldValues::volFieldValue::writeAll(const Foam::scalarField&, const Foam::scalarField&)
    in file fieldValues/volFieldValue/volFieldValue.C at line 160
    Requested field omega not found in database and not processed
    max(region0) of nut = 4.21179028192e-05
    max(region0) of epsilon = 5.33649972652
--> FOAM Warning : 
    From Foam::label Foam::functionObjects::fieldValues::volFieldValue::writeAll(const Foam::scalarField&, const Foam::scalarField&)
    in file fieldValues/volFieldValue/volFieldValue.C at line 160
    Requested field nuTilda not found in database and not processed

volFieldValue maxdomain_vector write:

Time = 13

DILUPBiCGStab:  Solving for Ux, Initial residual = 0.0132330191553, Final residual = 5.98479826754e-10, No Iterations 8
DILUPBiCGStab:  Solving for Uy, Initial residual = 0.285428199852, Final residual = 1.43044820997e-09, No Iterations 10
DILUPBiCGStab:  Solving for Uz, Initial residual = 0.59564456405, Final residual = 4.9716066126e-09, No Iterations 7
DICPCG:  Solving for p, Initial residual = 0.0735811205977, Final residual = 0.000718512107945, No Iterations 53
DICPCG:  Solving for p, Initial residual = 0.000739225646481, Final residual = 1.96876936653e-06, No Iterations 100
time step continuity errors : sum local = 1.30365238388e-06, global = -7.19222566422e-09, cumulative = 7.26808347103e-08
DILUPBiCGStab:  Solving for epsilon, Initial residual = 0.0149641578827, Final residual = 5.49758232345e-09, No Iterations 3
bounding epsilon, min: -0.00102388787322 max: 5.34247465207 average: 0.0291395122239
DILUPBiCGStab:  Solving for k, Initial residual = 0.0738235610017, Final residual = 4.95583685375e-09, No Iterations 5
ExecutionTime = 0.3 s  ClockTime = 1 s

volFieldValue minmaxdomain_scalar write:
--> FOAM Warning : 
    From Foam::label Foam::functionObjects::fieldValues::volFieldValue::writeAll(const Foam::scalarField&, const Foam::scalarField&)
    in file fieldValues/volFieldValue/volFieldValue.C at line 160
    Requested field omega not found in database and not processed
--> FOAM Warning : 
    From Foam::label Foam::functionObjects::fieldValues::volFieldValue::writeAll(const Foam::scalarField&, const Foam::scalarField&)
    in file fieldValues/volFieldValue/volFieldValue.C at line 160
    Requested field nuTilda not found in database and not processed

volFieldValue minmaxdomain_vector write:

volFieldValue mindomain_scalar write:
    min(region0) of p = 0.00112405064093
    min(region0) of k = 2.50156774089e-05
--> FOAM Warning : 
    From Foam::label Foam::functionObjects::fieldValues::volFieldValue::writeAll(const Foam::scalarField&, const Foam::scalarField&)
    in file fieldValues/volFieldValue/volFieldValue.C at line 160
    Requested field omega not found in database and not processed
    min(region0) of nut = 3.66800384986e-07
    min(region0) of epsilon = 6.20558983355e-07
--> FOAM Warning : 
    From Foam::label Foam::functionObjects::fieldValues::volFieldValue::writeAll(const Foam::scalarField&, const Foam::scalarField&)
    in file fieldValues/volFieldValue/volFieldValue.C at line 160
    Requested field nuTilda not found in database and not processed

volFieldValue mindomain_vector write:

volFieldValue maxdomain_scalar write:
    max(region0) of p = 0.427921702665
    max(region0) of k = 0.0314866203484
--> FOAM Warning : 
    From Foam::label Foam::functionObjects::fieldValues::volFieldValue::writeAll(const Foam::scalarField&, const Foam::scalarField&)
    in file fieldValues/volFieldValue/volFieldValue.C at line 160
    Requested field omega not found in database and not processed
    max(region0) of nut = 0.00428941326562
    max(region0) of epsilon = 5.34247465207
--> FOAM Warning : 
    From Foam::label Foam::functionObjects::fieldValues::volFieldValue::writeAll(const Foam::scalarField&, const Foam::scalarField&)
    in file fieldValues/volFieldValue/volFieldValue.C at line 160
    Requested field nuTilda not found in database and not processed

volFieldValue maxdomain_vector write:

Time = 14

DILUPBiCGStab:  Solving for Ux, Initial residual = 0.0142771352784, Final residual = 8.55095413265e-09, No Iterations 7
DILUPBiCGStab:  Solving for Uy, Initial residual = 0.35809450921, Final residual = 7.39685752084e-09, No Iterations 8
DILUPBiCGStab:  Solving for Uz, Initial residual = 0.610757072532, Final residual = 6.77062096603e-09, No Iterations 7
DICPCG:  Solving for p, Initial residual = 0.0426208046503, Final residual = 0.000115462078399, No Iterations 100
DICPCG:  Solving for p, Initial residual = 0.000114352231906, Final residual = 5.08416358338e-07, No Iterations 5
time step continuity errors : sum local = 3.06872632096e-07, global = 2.5386633557e-09, cumulative = 7.5219498066e-08
DILUPBiCGStab:  Solving for epsilon, Initial residual = 0.0158645250132, Final residual = 3.87784574966e-09, No Iterations 4
DILUPBiCGStab:  Solving for k, Initial residual = 0.0779541757421, Final residual = 2.04518692516e-09, No Iterations 5
ExecutionTime = 0.33 s  ClockTime = 1 s

volFieldValue minmaxdomain_scalar write:
--> FOAM Warning : 
    From Foam::label Foam::functionObjects::fieldValues::volFieldValue::writeAll(const Foam::scalarField&, const Foam::scalarField&)
    in file fieldValues/volFieldValue/volFieldValue.C at line 160
    Requested field omega not found in database and not processed
--> FOAM Warning : 
    From Foam::label Foam::functionObjects::fieldValues::volFieldValue::writeAll(const Foam::scalarField&, const Foam::scalarField&)
    in file fieldValues/volFieldValue/volFieldValue.C at line 160
    Requested field nuTilda not found in database and not processed

volFieldValue minmaxdomain_vector write:

volFieldValue mindomain_scalar write:
    min(region0) of p = 0.00116623087815
    min(region0) of k = 1.52564516784e-05
--> FOAM Warning : 
    From Foam::label Foam::functionObjects::fieldValues::volFieldValue::writeAll(const Foam::scalarField&, const Foam::scalarField&)
    in file fieldValues/volFieldValue/volFieldValue.C at line 160
    Requested field omega not found in database and not processed
    min(region0) of nut = 8.12285100966e-09
    min(region0) of epsilon = 6.26726712892e-06
--> FOAM Warning : 
    From Foam::label Foam::functionObjects::fieldValues::volFieldValue::writeAll(const Foam::scalarField&, const Foam::scalarField&)
    in file fieldValues/volFieldValue/volFieldValue.C at line 160
    Requested field nuTilda not found in database and not processed

volFieldValue mindomain_vector write:

volFieldValue maxdomain_scalar write:
    max(region0) of p = 0.451567913477
    max(region0) of k = 0.0314956253025
--> FOAM Warning : 
    From Foam::label Foam::functionObjects::fieldValues::volFieldValue::writeAll(const Foam::scalarField&, const Foam::scalarField&)
    in file fieldValues/volFieldValue/volFieldValue.C at line 160
    Requested field omega not found in database and not processed
    max(region0) of nut = 4.08795104706e-05
    max(region0) of epsilon = 5.33353082002
--> FOAM Warning : 
    From Foam::label Foam::functionObjects::fieldValues::volFieldValue::writeAll(const Foam::scalarField&, const Foam::scalarField&)
    in file fieldValues/volFieldValue/volFieldValue.C at line 160
    Requested field nuTilda not found in database and not processed

volFieldValue maxdomain_vector write:

Time = 15

DILUPBiCGStab:  Solving for Ux, Initial residual = 0.0143088499209, Final residual = 8.36665244541e-09, No Iterations 7
DILUPBiCGStab:  Solving for Uy, Initial residual = 0.258669132693, Final residual = 4.80502792093e-09, No Iterations 9
DILUPBiCGStab:  Solving for Uz, Initial residual = 0.58548180936, Final residual = 1.89108895342e-09, No Iterations 8
DICPCG:  Solving for p, Initial residual = 0.0690238455652, Final residual = 0.000652028548668, No Iterations 98
DICPCG:  Solving for p, Initial residual = 0.000650938528537, Final residual = 5.4973851185e-06, No Iterations 8
time step continuity errors : sum local = 3.73354173419e-06, global = -8.68673100474e-07, cumulative = -7.93453602408e-07
DILUPBiCGStab:  Solving for epsilon, Initial residual = 0.0167933962434, Final residual = 3.22786047951e-09, No Iterations 3
bounding epsilon, min: -0.000292874142013 max: 5.33581901262 average: 0.0345543143215
DILUPBiCGStab:  Solving for k, Initial residual = 0.083738424768, Final residual = 3.45185507968e-09, No Iterations 5
ExecutionTime = 0.35 s  ClockTime = 1 s

volFieldValue minmaxdomain_scalar write:
--> FOAM Warning : 
    From Foam::label Foam::functionObjects::fieldValues::volFieldValue::writeAll(const Foam::scalarField&, const Foam::scalarField&)
    in file fieldValues/volFieldValue/volFieldValue.C at line 160
    Requested field omega not found in database and not processed
--> FOAM Warning : 
    From Foam::label Foam::functionObjects::fieldValues::volFieldValue::writeAll(const Foam::scalarField&, const Foam::scalarField&)
    in file fieldValues/volFieldValue/volFieldValue.C at line 160
    Requested field nuTilda not found in database and not processed

volFieldValue minmaxdomain_vector write:

volFieldValue mindomain_scalar write:
    min(region0) of p = 0.00122328630081
    min(region0) of k = 2.52751925912e-05
--> FOAM Warning : 
    From Foam::label Foam::functionObjects::fieldValues::volFieldValue::writeAll(const Foam::scalarField&, const Foam::scalarField&)
    in file fieldValues/volFieldValue/volFieldValue.C at line 160
    Requested field omega not found in database and not processed
    min(region0) of nut = 2.810422935e-07
    min(region0) of epsilon = 1.09962813639e-06
--> FOAM Warning : 
    From Foam::label Foam::functionObjects::fieldValues::volFieldValue::writeAll(const Foam::scalarField&, const Foam::scalarField&)
    in file fieldValues/volFieldValue/volFieldValue.C at line 160
    Requested field nuTilda not found in database and not processed

volFieldValue mindomain_vector write:

volFieldValue maxdomain_scalar write:
    max(region0) of p = 0.464199340205
    max(region0) of k = 0.0314958608833
--> FOAM Warning : 
    From Foam::label Foam::functionObjects::fieldValues::volFieldValue::writeAll(const Foam::scalarField&, const Foam::scalarField&)
    in file fieldValues/volFieldValue/volFieldValue.C at line 160
    Requested field omega not found in database and not processed
    max(region0) of nut = 0.00229988497112
    max(region0) of epsilon = 5.33581901262
--> FOAM Warning : 
    From Foam::label Foam::functionObjects::fieldValues::volFieldValue::writeAll(const Foam::scalarField&, const Foam::scalarField&)
    in file fieldValues/volFieldValue/volFieldValue.C at line 160
    Requested field nuTilda not found in database and not processed

volFieldValue maxdomain_vector write:

Time = 16

DILUPBiCGStab:  Solving for Ux, Initial residual = 0.0153139914187, Final residual = 3.86463731934e-09, No Iterations 7
DILUPBiCGStab:  Solving for Uy, Initial residual = 0.226549635749, Final residual = 3.67819392432e-09, No Iterations 9
DILUPBiCGStab:  Solving for Uz, Initial residual = 0.593609148469, Final residual = 3.95372666315e-09, No Iterations 7
DICPCG:  Solving for p, Initial residual = 0.0380356629571, Final residual = 8.43687683709e-05, No Iterations 100
DICPCG:  Solving for p, Initial residual = 8.22497388944e-05, Final residual = 4.53623674169e-07, No Iterations 4
time step continuity errors : sum local = 2.78619263864e-07, global = 3.96271528678e-09, cumulative = -7.89490887121e-07
DILUPBiCGStab:  Solving for epsilon, Initial residual = 0.0170646652643, Final residual = 3.72325830539e-09, No Iterations 4
DILUPBiCGStab:  Solving for k, Initial residual = 0.0849563225852, Final residual = 6.15855706031e-09, No Iterations 4
ExecutionTime = 0.38 s  ClockTime = 1 s

volFieldValue minmaxdomain_scalar write:
--> FOAM Warning : 
    From Foam::label Foam::functionObjects::fieldValues::volFieldValue::writeAll(const Foam::scalarField&, const Foam::scalarField&)
    in file fieldValues/volFieldValue/volFieldValue.C at line 160
    Requested field omega not found in database and not processed
--> FOAM Warning : 
    From Foam::label Foam::functionObjects::fieldValues::volFieldValue::writeAll(const Foam::scalarField&, const Foam::scalarField&)
    in file fieldValues/volFieldValue/volFieldValue.C at line 160
    Requested field nuTilda not found in database and not processed

volFieldValue minmaxdomain_vector write:

volFieldValue mindomain_scalar write:
    min(region0) of p = 0.00129708740392
    min(region0) of k = 1.3705296393e-05
--> FOAM Warning : 
    From Foam::label Foam::functionObjects::fieldValues::volFieldValue::writeAll(const Foam::scalarField&, const Foam::scalarField&)
    in file fieldValues/volFieldValue/volFieldValue.C at line 160
    Requested field omega not found in database and not processed
    min(region0) of nut = 7.39178241044e-09
    min(region0) of epsilon = 5.41410172445e-06
--> FOAM Warning : 
    From Foam::label Foam::functionObjects::fieldValues::volFieldValue::writeAll(const Foam::scalarField&, const Foam::scalarField&)
    in file fieldValues/volFieldValue/volFieldValue.C at line 160
    Requested field nuTilda not found in database and not processed

volFieldValue mindomain_vector write:

volFieldValue maxdomain_scalar write:
    max(region0) of p = 0.48900492131
    max(region0) of k = 0.0314985627986
--> FOAM Warning : 
    From Foam::label Foam::functionObjects::fieldValues::volFieldValue::writeAll(const Foam::scalarField&, const Foam::scalarField&)
    in file fieldValues/volFieldValue/volFieldValue.C at line 160
    Requested field omega not found in database and not processed
    max(region0) of nut = 3.80535073246e-05
    max(region0) of epsilon = 5.33587887898
--> FOAM Warning : 
    From Foam::label Foam::functionObjects::fieldValues::volFieldValue::writeAll(const Foam::scalarField&, const Foam::scalarField&)
    in file fieldValues/volFieldValue/volFieldValue.C at line 160
    Requested field nuTilda not found in database and not processed

volFieldValue maxdomain_vector write:

Time = 17

DILUPBiCGStab:  Solving for Ux, Initial residual = 0.0157063541364, Final residual = 7.35308025494e-09, No Iterations 6
DILUPBiCGStab:  Solving for Uy, Initial residual = 0.203798760842, Final residual = 3.70456652671e-09, No Iterations 9
DILUPBiCGStab:  Solving for Uz, Initial residual = 0.591841332263, Final residual = 6.08323842093e-09, No Iterations 7
DICPCG:  Solving for p, Initial residual = 0.0548548817878, Final residual = 0.000210073611417, No Iterations 99
DICPCG:  Solving for p, Initial residual = 0.000207003918075, Final residual = 1.65146811841e-06, No Iterations 7
time step continuity errors : sum local = 1.15012278947e-06, global = -1.37913407785e-07, cumulative = -9.27404294906e-07
DILUPBiCGStab:  Solving for epsilon, Initial residual = 0.0165189252365, Final residual = 3.71791069642e-09, No Iterations 3
bounding epsilon, min: -0.000173464198085 max: 5.33656551214 average: 0.0418289202724
DILUPBiCGStab:  Solving for k, Initial residual = 0.0865063396419, Final residual = 6.94394305133e-09, No Iterations 4
ExecutionTime = 0.4 s  ClockTime = 1 s

volFieldValue minmaxdomain_scalar write:
--> FOAM Warning : 
    From Foam::label Foam::functionObjects::fieldValues::volFieldValue::writeAll(const Foam::scalarField&, const Foam::scalarField&)
    in file fieldValues/volFieldValue/volFieldValue.C at line 160
    Requested field omega not found in database and not processed
--> FOAM Warning : 
    From Foam::label Foam::functionObjects::fieldValues::volFieldValue::writeAll(const Foam::scalarField&, const Foam::scalarField&)
    in file fieldValues/volFieldValue/volFieldValue.C at line 160
    Requested field nuTilda not found in database and not processed

volFieldValue minmaxdomain_vector write:

volFieldValue mindomain_scalar write:
    min(region0) of p = 0.00138562641654
    min(region0) of k = 3.29524284842e-05
--> FOAM Warning : 
    From Foam::label Foam::functionObjects::fieldValues::volFieldValue::writeAll(const Foam::scalarField&, const Foam::scalarField&)
    in file fieldValues/volFieldValue/volFieldValue.C at line 160
    Requested field omega not found in database and not processed
    min(region0) of nut = 6.1898031287e-07
    min(region0) of epsilon = 1.08253016637e-06
--> FOAM Warning : 
    From Foam::label Foam::functionObjects::fieldValues::volFieldValue::writeAll(const Foam::scalarField&, const Foam::scalarField&)
    in file fieldValues/volFieldValue/volFieldValue.C at line 160
    Requested field nuTilda not found in database and not processed

volFieldValue mindomain_vector write:

volFieldValue maxdomain_scalar write:
    max(region0) of p = 0.509168512696
    max(region0) of k = 0.0314852150918
--> FOAM Warning : 
    From Foam::label Foam::functionObjects::fieldValues::volFieldValue::writeAll(const Foam::scalarField&, const Foam::scalarField&)
    in file fieldValues/volFieldValue/volFieldValue.C at line 160
    Requested field omega not found in database and not processed
    max(region0) of nut = 0.00204606130782
    max(region0) of epsilon = 5.33656551214
--> FOAM Warning : 
    From Foam::label Foam::functionObjects::fieldValues::volFieldValue::writeAll(const Foam::scalarField&, const Foam::scalarField&)
    in file fieldValues/volFieldValue/volFieldValue.C at line 160
    Requested field nuTilda not found in database and not processed

volFieldValue maxdomain_vector write:

Time = 18

DILUPBiCGStab:  Solving for Ux, Initial residual = 0.0162778006373, Final residual = 3.7489170667e-09, No Iterations 7
DILUPBiCGStab:  Solving for Uy, Initial residual = 0.240730584321, Final residual = 9.14102500363e-09, No Iterations 8
DILUPBiCGStab:  Solving for Uz, Initial residual = 0.589703911886, Final residual = 7.23237814172e-09, No Iterations 7
DICPCG:  Solving for p, Initial residual = 0.0321418277529, Final residual = 0.00029829428097, No Iterations 98
DICPCG:  Solving for p, Initial residual = 0.000287026872202, Final residual = 1.57646976485e-06, No Iterations 7
time step continuity errors : sum local = 1.02092314265e-06, global = -1.24469471043e-07, cumulative = -1.05187376595e-06
DILUPBiCGStab:  Solving for epsilon, Initial residual = 0.0165284728953, Final residual = 2.79578558925e-09, No Iterations 4
DILUPBiCGStab:  Solving for k, Initial residual = 0.0831138840504, Final residual = 3.7568220017e-09, No Iterations 4
ExecutionTime = 0.42 s  ClockTime = 1 s

volFieldValue minmaxdomain_scalar write:
--> FOAM Warning : 
    From Foam::label Foam::functionObjects::fieldValues::volFieldValue::writeAll(const Foam::scalarField&, const Foam::scalarField&)
    in file fieldValues/volFieldValue/volFieldValue.C at line 160
    Requested field omega not found in database and not processed
--> FOAM Warning : 
    From Foam::label Foam::functionObjects::fieldValues::volFieldValue::writeAll(const Foam::scalarField&, const Foam::scalarField&)
    in file fieldValues/volFieldValue/volFieldValue.C at line 160
    Requested field nuTilda not found in database and not processed

volFieldValue minmaxdomain_vector write:

volFieldValue mindomain_scalar write:
    min(region0) of p = 0.00148894183255
    min(region0) of k = 2.13451460987e-05
--> FOAM Warning : 
    From Foam::label Foam::functionObjects::fieldValues::volFieldValue::writeAll(const Foam::scalarField&, const Foam::scalarField&)
    in file fieldValues/volFieldValue/volFieldValue.C at line 160
    Requested field omega not found in database and not processed
    min(region0) of nut = 1.37717258636e-08
    min(region0) of epsilon = 4.79405699741e-06
--> FOAM Warning : 
    From Foam::label Foam::functionObjects::fieldValues::volFieldValue::writeAll(const Foam::scalarField&, const Foam::scalarField&)
    in file fieldValues/volFieldValue/volFieldValue.C at line 160
    Requested field nuTilda not found in database and not processed

volFieldValue mindomain_vector write:

volFieldValue maxdomain_scalar write:
    max(region0) of p = 0.541280914631
    max(region0) of k = 0.0314827751197
--> FOAM Warning : 
    From Foam::label Foam::functionObjects::fieldValues::volFieldValue::writeAll(const Foam::scalarField&, const Foam::scalarField&)
    in file fieldValues/volFieldValue/volFieldValue.C at line 160
    Requested field omega not found in database and not processed
    max(region0) of nut = 5.73100160784e-05
    max(region0) of epsilon = 5.33317376858
--> FOAM Warning : 
    From Foam::label Foam::functionObjects::fieldValues::volFieldValue::writeAll(const Foam::scalarField&, const Foam::scalarField&)
    in file fieldValues/volFieldValue/volFieldValue.C at line 160
    Requested field nuTilda not found in database and not processed

volFieldValue maxdomain_vector write:

Time = 19

DILUPBiCGStab:  Solving for Ux, Initial residual = 0.01634997473, Final residual = 6.69997601475e-09, No Iterations 6
DILUPBiCGStab:  Solving for Uy, Initial residual = 0.14964453129, Final residual = 7.78405677583e-09, No Iterations 8
DILUPBiCGStab:  Solving for Uz, Initial residual = 0.574671017959, Final residual = 4.36083788457e-09, No Iterations 7
DICPCG:  Solving for p, Initial residual = 0.0480965095659, Final residual = 0.00026256406706, No Iterations 96
DICPCG:  Solving for p, Initial residual = 0.000256261429035, Final residual = 1.67802365252e-06, No Iterations 7
time step continuity errors : sum local = 1.19874737448e-06, global = -1.80624340896e-07, cumulative = -1.23249810685e-06
DILUPBiCGStab:  Solving for epsilon, Initial residual = 0.0156474646399, Final residual = 1.91540909372e-09, No Iterations 3
bounding epsilon, min: -4.42472430156e-05 max: 5.33255383269 average: 0.0506094476276
DILUPBiCGStab:  Solving for k, Initial residual = 0.0816375450437, Final residual = 7.23411144661e-09, No Iterations 4
ExecutionTime = 0.44 s  ClockTime = 1 s

volFieldValue minmaxdomain_scalar write:
--> FOAM Warning : 
    From Foam::label Foam::functionObjects::fieldValues::volFieldValue::writeAll(const Foam::scalarField&, const Foam::scalarField&)
    in file fieldValues/volFieldValue/volFieldValue.C at line 160
    Requested field omega not found in database and not processed
--> FOAM Warning : 
    From Foam::label Foam::functionObjects::fieldValues::volFieldValue::writeAll(const Foam::scalarField&, const Foam::scalarField&)
    in file fieldValues/volFieldValue/volFieldValue.C at line 160
    Requested field nuTilda not found in database and not processed

volFieldValue minmaxdomain_vector write:

volFieldValue mindomain_scalar write:
    min(region0) of p = 0.00160577560944
    min(region0) of k = 3.01607519548e-05
--> FOAM Warning : 
    From Foam::label Foam::functionObjects::fieldValues::volFieldValue::writeAll(const Foam::scalarField&, const Foam::scalarField&)
    in file fieldValues/volFieldValue/volFieldValue.C at line 160
    Requested field omega not found in database and not processed
    min(region0) of nut = 5.52841094718e-07
    min(region0) of epsilon = 2.73635834317e-06
--> FOAM Warning : 
    From Foam::label Foam::functionObjects::fieldValues::volFieldValue::writeAll(const Foam::scalarField&, const Foam::scalarField&)
    in file fieldValues/volFieldValue/volFieldValue.C at line 160
    Requested field nuTilda not found in database and not processed

volFieldValue mindomain_vector write:

volFieldValue maxdomain_scalar write:
    max(region0) of p = 0.56597153586
    max(region0) of k = 0.0314827663327
--> FOAM Warning : 
    From Foam::label Foam::functionObjects::fieldValues::volFieldValue::writeAll(const Foam::scalarField&, const Foam::scalarField&)
    in file fieldValues/volFieldValue/volFieldValue.C at line 160
    Requested field omega not found in database and not processed
    max(region0) of nut = 0.000647039090924
    max(region0) of epsilon = 5.33255383269
--> FOAM Warning : 
    From Foam::label Foam::functionObjects::fieldValues::volFieldValue::writeAll(const Foam::scalarField&, const Foam::scalarField&)
    in file fieldValues/volFieldValue/volFieldValue.C at line 160
    Requested field nuTilda not found in database and not processed

volFieldValue maxdomain_vector write:

Time = 20

DILUPBiCGStab:  Solving for Ux, Initial residual = 0.0161644138238, Final residual = 7.80129690368e-09, No Iterations 7
DILUPBiCGStab:  Solving for Uy, Initial residual = 0.113370358638, Final residual = 4.55670567739e-09, No Iterations 8
DILUPBiCGStab:  Solving for Uz, Initial residual = 0.590003628718, Final residual = 8.98670052764e-09, No Iterations 7
DICPCG:  Solving for p, Initial residual = 0.0254267181916, Final residual = 0.000173781124369, No Iterations 99
DICPCG:  Solving for p, Initial residual = 0.000165273374866, Final residual = 1.61218619811e-06, No Iterations 5
time step continuity errors : sum local = 1.08116948807e-06, global = -4.25898990758e-08, cumulative = -1.27508800592e-06
DILUPBiCGStab:  Solving for epsilon, Initial residual = 0.0146676429435, Final residual = 9.89587117596e-09, No Iterations 4
DILUPBiCGStab:  Solving for k, Initial residual = 0.075516651375, Final residual = 2.67598955853e-09, No Iterations 4
ExecutionTime = 0.46 s  ClockTime = 1 s

volFieldValue minmaxdomain_scalar write:
--> FOAM Warning : 
    From Foam::label Foam::functionObjects::fieldValues::volFieldValue::writeAll(const Foam::scalarField&, const Foam::scalarField&)
    in file fieldValues/volFieldValue/volFieldValue.C at line 160
    Requested field omega not found in database and not processed
--> FOAM Warning : 
    From Foam::label Foam::functionObjects::fieldValues::volFieldValue::writeAll(const Foam::scalarField&, const Foam::scalarField&)
    in file fieldValues/volFieldValue/volFieldValue.C at line 160
    Requested field nuTilda not found in database and not processed

volFieldValue minmaxdomain_vector write:

volFieldValue mindomain_scalar write:
    min(region0) of p = 0.00173496355791
    min(region0) of k = 1.51979230292e-05
--> FOAM Warning : 
    From Foam::label Foam::functionObjects::fieldValues::volFieldValue::writeAll(const Foam::scalarField&, const Foam::scalarField&)
    in file fieldValues/volFieldValue/volFieldValue.C at line 160
    Requested field omega not found in database and not processed
    min(region0) of nut = 1.46112390396e-08
    min(region0) of epsilon = 4.3885300304e-06
--> FOAM Warning : 
    From Foam::label Foam::functionObjects::fieldValues::volFieldValue::writeAll(const Foam::scalarField&, const Foam::scalarField&)
    in file fieldValues/volFieldValue/volFieldValue.C at line 160
    Requested field nuTilda not found in database and not processed

volFieldValue mindomain_vector write:

volFieldValue maxdomain_scalar write:
    max(region0) of p = 0.599633339678
    max(region0) of k = 0.0314744819953
--> FOAM Warning : 
    From Foam::label Foam::functionObjects::fieldValues::volFieldValue::writeAll(const Foam::scalarField&, const Foam::scalarField&)
    in file fieldValues/volFieldValue/volFieldValue.C at line 160
    Requested field omega not found in database and not processed
    max(region0) of nut = 8.57185679669e-05
    max(region0) of epsilon = 5.33255160017
--> FOAM Warning : 
    From Foam::label Foam::functionObjects::fieldValues::volFieldValue::writeAll(const Foam::scalarField&, const Foam::scalarField&)
    in file fieldValues/volFieldValue/volFieldValue.C at line 160
    Requested field nuTilda not found in database and not processed

volFieldValue maxdomain_vector write:

Time = 21

DILUPBiCGStab:  Solving for Ux, Initial residual = 0.0158369196446, Final residual = 7.82858948157e-09, No Iterations 6
DILUPBiCGStab:  Solving for Uy, Initial residual = 0.100226646731, Final residual = 5.66722343905e-09, No Iterations 8
DILUPBiCGStab:  Solving for Uz, Initial residual = 0.570471678583, Final residual = 4.19420757499e-09, No Iterations 7
DICPCG:  Solving for p, Initial residual = 0.0353739141761, Final residual = 0.000132180599816, No Iterations 99
DICPCG:  Solving for p, Initial residual = 0.00012781841513, Final residual = 5.39401376644e-07, No Iterations 8
time step continuity errors : sum local = 3.91858609099e-07, global = -6.69289305231e-08, cumulative = -1.34201693644e-06
DILUPBiCGStab:  Solving for epsilon, Initial residual = 0.0132322822482, Final residual = 1.47787186136e-09, No Iterations 3
bounding epsilon, min: -2.54142803748e-05 max: 5.33044693679 average: 0.0602112697935
DILUPBiCGStab:  Solving for k, Initial residual = 0.0713244018413, Final residual = 6.20393302502e-09, No Iterations 4
ExecutionTime = 0.48 s  ClockTime = 1 s

volFieldValue minmaxdomain_scalar write:
--> FOAM Warning : 
    From Foam::label Foam::functionObjects::fieldValues::volFieldValue::writeAll(const Foam::scalarField&, const Foam::scalarField&)
    in file fieldValues/volFieldValue/volFieldValue.C at line 160
    Requested field omega not found in database and not processed
--> FOAM Warning : 
    From Foam::label Foam::functionObjects::fieldValues::volFieldValue::writeAll(const Foam::scalarField&, const Foam::scalarField&)
    in file fieldValues/volFieldValue/volFieldValue.C at line 160
    Requested field nuTilda not found in database and not processed

volFieldValue minmaxdomain_vector write:

volFieldValue mindomain_scalar write:
    min(region0) of p = 0.00187469737833
    min(region0) of k = 2.76313737302e-05
--> FOAM Warning : 
    From Foam::label Foam::functionObjects::fieldValues::volFieldValue::writeAll(const Foam::scalarField&, const Foam::scalarField&)
    in file fieldValues/volFieldValue/volFieldValue.C at line 160
    Requested field omega not found in database and not processed
    min(region0) of nut = 7.45949667185e-07
    min(region0) of epsilon = 1.43485088451e-06
--> FOAM Warning : 
    From Foam::label Foam::functionObjects::fieldValues::volFieldValue::writeAll(const Foam::scalarField&, const Foam::scalarField&)
    in file fieldValues/volFieldValue/volFieldValue.C at line 160
    Requested field nuTilda not found in database and not processed

volFieldValue mindomain_vector write:

volFieldValue maxdomain_scalar write:
    max(region0) of p = 0.628801387747
    max(region0) of k = 0.0314692309661
--> FOAM Warning : 
    From Foam::label Foam::functionObjects::fieldValues::volFieldValue::writeAll(const Foam::scalarField&, const Foam::scalarField&)
    in file fieldValues/volFieldValue/volFieldValue.C at line 160
    Requested field omega not found in database and not processed
    max(region0) of nut = 0.00150714772526
    max(region0) of epsilon = 5.33044693679
--> FOAM Warning : 
    From Foam::label Foam::functionObjects::fieldValues::volFieldValue::writeAll(const Foam::scalarField&, const Foam::scalarField&)
    in file fieldValues/volFieldValue/volFieldValue.C at line 160
    Requested field nuTilda not found in database and not processed

volFieldValue maxdomain_vector write:

Time = 22

DILUPBiCGStab:  Solving for Ux, Initial residual = 0.0152981181304, Final residual = 2.39617626545e-11, No Iterations 9
DILUPBiCGStab:  Solving for Uy, Initial residual = 0.104025403687, Final residual = 3.93653689474e-09, No Iterations 9
DILUPBiCGStab:  Solving for Uz, Initial residual = 0.56634833937, Final residual = 3.86216591802e-09, No Iterations 7
DICPCG:  Solving for p, Initial residual = 0.0237546221255, Final residual = 0.000156834601455, No Iterations 99
DICPCG:  Solving for p, Initial residual = 0.00014956187676, Final residual = 1.08407227481e-06, No Iterations 5
time step continuity errors : sum local = 7.71375519437e-07, global = 2.62198759234e-08, cumulative = -1.31579706052e-06
DILUPBiCGStab:  Solving for epsilon, Initial residual = 0.01211742407, Final residual = 7.77938429284e-09, No Iterations 4
DILUPBiCGStab:  Solving for k, Initial residual = 0.0637120449412, Final residual = 7.87592305685e-09, No Iterations 4
ExecutionTime = 0.5 s  ClockTime = 1 s

volFieldValue minmaxdomain_scalar write:
--> FOAM Warning : 
    From Foam::label Foam::functionObjects::fieldValues::volFieldValue::writeAll(const Foam::scalarField&, const Foam::scalarField&)
    in file fieldValues/volFieldValue/volFieldValue.C at line 160
    Requested field omega not found in database and not processed
--> FOAM Warning : 
    From Foam::label Foam::functionObjects::fieldValues::volFieldValue::writeAll(const Foam::scalarField&, const Foam::scalarField&)
    in file fieldValues/volFieldValue/volFieldValue.C at line 160
    Requested field nuTilda not found in database and not processed

volFieldValue minmaxdomain_vector write:

volFieldValue mindomain_scalar write:
    min(region0) of p = 0.00202405727465
    min(region0) of k = 2.28045856609e-05
--> FOAM Warning : 
    From Foam::label Foam::functionObjects::fieldValues::volFieldValue::writeAll(const Foam::scalarField&, const Foam::scalarField&)
    in file fieldValues/volFieldValue/volFieldValue.C at line 160
    Requested field omega not found in database and not processed
    min(region0) of nut = 2.10450526976e-08
    min(region0) of epsilon = 4.18931299509e-06
--> FOAM Warning : 
    From Foam::label Foam::functionObjects::fieldValues::volFieldValue::writeAll(const Foam::scalarField&, const Foam::scalarField&)
    in file fieldValues/volFieldValue/volFieldValue.C at line 160
    Requested field nuTilda not found in database and not processed

volFieldValue mindomain_vector write:

volFieldValue maxdomain_scalar write:
    max(region0) of p = 0.666302915791
    max(region0) of k = 0.0314631896407
--> FOAM Warning : 
    From Foam::label Foam::functionObjects::fieldValues::volFieldValue::writeAll(const Foam::scalarField&, const Foam::scalarField&)
    in file fieldValues/volFieldValue/volFieldValue.C at line 160
    Requested field omega not found in database and not processed
    max(region0) of nut = 0.000119174387109
    max(region0) of epsilon = 5.32911303883
--> FOAM Warning : 
    From Foam::label Foam::functionObjects::fieldValues::volFieldValue::writeAll(const Foam::scalarField&, const Foam::scalarField&)
    in file fieldValues/volFieldValue/volFieldValue.C at line 160
    Requested field nuTilda not found in database and not processed

volFieldValue maxdomain_vector write:

Time = 23

DILUPBiCGStab:  Solving for Ux, Initial residual = 0.0146812232308, Final residual = 1.80834864071e-09, No Iterations 7
DILUPBiCGStab:  Solving for Uy, Initial residual = 0.0800838810641, Final residual = 3.52699612211e-09, No Iterations 8
DILUPBiCGStab:  Solving for Uz, Initial residual = 0.548823889521, Final residual = 1.90028554805e-09, No Iterations 7
DICPCG:  Solving for p, Initial residual = 0.0306894261922, Final residual = 0.000196342913535, No Iterations 98
DICPCG:  Solving for p, Initial residual = 0.000189748221554, Final residual = 1.31373809444e-06, No Iterations 4
time step continuity errors : sum local = 9.77033688333e-07, global = -1.6999874425e-08, cumulative = -1.33279693495e-06
DILUPBiCGStab:  Solving for epsilon, Initial residual = 0.0107621598206, Final residual = 9.84546249806e-10, No Iterations 3
DILUPBiCGStab:  Solving for k, Initial residual = 0.0593263316556, Final residual = 4.81269846103e-09, No Iterations 4
ExecutionTime = 0.52 s  ClockTime = 1 s

volFieldValue minmaxdomain_scalar write:
--> FOAM Warning : 
    From Foam::label Foam::functionObjects::fieldValues::volFieldValue::writeAll(const Foam::scalarField&, const Foam::scalarField&)
    in file fieldValues/volFieldValue/volFieldValue.C at line 160
    Requested field omega not found in database and not processed
--> FOAM Warning : 
    From Foam::label Foam::functionObjects::fieldValues::volFieldValue::writeAll(const Foam::scalarField&, const Foam::scalarField&)
    in file fieldValues/volFieldValue/volFieldValue.C at line 160
    Requested field nuTilda not found in database and not processed

volFieldValue minmaxdomain_vector write:

volFieldValue mindomain_scalar write:
    min(region0) of p = 0.00218179202798
    min(region0) of k = 2.52646225442e-05
--> FOAM Warning : 
    From Foam::label Foam::functionObjects::fieldValues::volFieldValue::writeAll(const Foam::scalarField&, const Foam::scalarField&)
    in file fieldValues/volFieldValue/volFieldValue.C at line 160
    Requested field omega not found in database and not processed
    min(region0) of nut = 7.06878092257e-07
    min(region0) of epsilon = 4.18003599336e-06
--> FOAM Warning : 
    From Foam::label Foam::functionObjects::fieldValues::volFieldValue::writeAll(const Foam::scalarField&, const Foam::scalarField&)
    in file fieldValues/volFieldValue/volFieldValue.C at line 160
    Requested field nuTilda not found in database and not processed

volFieldValue mindomain_vector write:

volFieldValue maxdomain_scalar write:
    max(region0) of p = 0.69703162207
    max(region0) of k = 0.0314667333226
--> FOAM Warning : 
    From Foam::label Foam::functionObjects::fieldValues::volFieldValue::writeAll(const Foam::scalarField&, const Foam::scalarField&)
    in file fieldValues/volFieldValue/volFieldValue.C at line 160
    Requested field omega not found in database and not processed
    max(region0) of nut = 0.000183180876157
    max(region0) of epsilon = 5.32757852275
--> FOAM Warning : 
    From Foam::label Foam::functionObjects::fieldValues::volFieldValue::writeAll(const Foam::scalarField&, const Foam::scalarField&)
    in file fieldValues/volFieldValue/volFieldValue.C at line 160
    Requested field nuTilda not found in database and not processed

volFieldValue maxdomain_vector write:

Time = 24

DILUPBiCGStab:  Solving for Ux, Initial residual = 0.0140885620247, Final residual = 7.6630049293e-09, No Iterations 6
DILUPBiCGStab:  Solving for Uy, Initial residual = 0.0741290191906, Final residual = 5.01974851606e-09, No Iterations 8
DILUPBiCGStab:  Solving for Uz, Initial residual = 0.550850598304, Final residual = 2.84616389463e-09, No Iterations 7
DICPCG:  Solving for p, Initial residual = 0.0188484173328, Final residual = 0.00010977259838, No Iterations 99
DICPCG:  Solving for p, Initial residual = 0.000104793649098, Final residual = 8.6192070947e-07, No Iterations 4
time step continuity errors : sum local = 6.31463046344e-07, global = 5.33455300601e-08, cumulative = -1.27945140489e-06
DILUPBiCGStab:  Solving for epsilon, Initial residual = 0.00955397345628, Final residual = 4.66595838124e-09, No Iterations 4
DILUPBiCGStab:  Solving for k, Initial residual = 0.0526729380668, Final residual = 8.23643505518e-09, No Iterations 4
ExecutionTime = 0.54 s  ClockTime = 1 s

volFieldValue minmaxdomain_scalar write:
--> FOAM Warning : 
[...]
DILUPBiCGStab:  Solving for Uz, Initial residual = 0.528251498748, Final residual = 5.93602645483e-09, No Iterations 7
DICPCG:  Solving for p, Initial residual = 5.87320738239e-09, Final residual = 7.50154753239e-09, No Iterations 90
DICPCG:  Solving for p, Initial residual = 7.50157635054e-09, Final residual = 1.84119255298e-09, No Iterations 3
time step continuity errors : sum local = 6.40668159117e-10, global = -1.78971063376e-11, cumulative = -1.339870914e-06
DILUPBiCGStab:  Solving for epsilon, Initial residual = 9.78577314293e-10, Final residual = 4.37230984319e-15, No Iterations 3
DILUPBiCGStab:  Solving for k, Initial residual = 4.89281685916e-09, Final residual = 1.02121468182e-13, No Iterations 3
ExecutionTime = 19.06 s  ClockTime = 21 s

volFieldValue minmaxdomain_scalar write:
--> FOAM Warning : 
    From Foam::label Foam::functionObjects::fieldValues::volFieldValue::writeAll(const Foam::scalarField&, const Foam::scalarField&)
    in file fieldValues/volFieldValue/volFieldValue.C at line 160
    Requested field omega not found in database and not processed
--> FOAM Warning : 
    From Foam::label Foam::functionObjects::fieldValues::volFieldValue::writeAll(const Foam::scalarField&, const Foam::scalarField&)
    in file fieldValues/volFieldValue/volFieldValue.C at line 160
    Requested field nuTilda not found in database and not processed

volFieldValue minmaxdomain_vector write:

volFieldValue mindomain_scalar write:
    min(region0) of p = 0.0045599945025
    min(region0) of k = 5.77124605165e-05
--> FOAM Warning : 
    From Foam::label Foam::functionObjects::fieldValues::volFieldValue::writeAll(const Foam::scalarField&, const Foam::scalarField&)
    in file fieldValues/volFieldValue/volFieldValue.C at line 160
    Requested field omega not found in database and not processed
    min(region0) of nut = 1.78805238337e-06
    min(region0) of epsilon = 1.5816793055e-05
--> FOAM Warning : 
    From Foam::label Foam::functionObjects::fieldValues::volFieldValue::writeAll(const Foam::scalarField&, const Foam::scalarField&)
    in file fieldValues/volFieldValue/volFieldValue.C at line 160
    Requested field nuTilda not found in database and not processed

volFieldValue mindomain_vector write:

volFieldValue maxdomain_scalar write:
    max(region0) of p = 0.99562753887
    max(region0) of k = 0.0314458361196
--> FOAM Warning : 
    From Foam::label Foam::functionObjects::fieldValues::volFieldValue::writeAll(const Foam::scalarField&, const Foam::scalarField&)
    in file fieldValues/volFieldValue/volFieldValue.C at line 160
    Requested field omega not found in database and not processed
    max(region0) of nut = 0.000893563481299
    max(region0) of epsilon = 5.32317149196
--> FOAM Warning : 
    From Foam::label Foam::functionObjects::fieldValues::volFieldValue::writeAll(const Foam::scalarField&, const Foam::scalarField&)
    in file fieldValues/volFieldValue/volFieldValue.C at line 160
    Requested field nuTilda not found in database and not processed

volFieldValue maxdomain_vector write:

Time = 996

DILUPBiCGStab:  Solving for Ux, Initial residual = 7.44853444118e-09, Final residual = 3.38077858015e-13, No Iterations 3
DILUPBiCGStab:  Solving for Uy, Initial residual = 1.76546554721e-08, Final residual = 1.52094711233e-10, No Iterations 3
DILUPBiCGStab:  Solving for Uz, Initial residual = 0.529026699411, Final residual = 9.01997698202e-09, No Iterations 7
DICPCG:  Solving for p, Initial residual = 4.06767125345e-09, Final residual = 6.20277142055e-09, No Iterations 3
DICPCG:  Solving for p, Initial residual = 6.20248213376e-09, Final residual = 2.71304847109e-09, No Iterations 3
time step continuity errors : sum local = 9.43912556581e-10, global = -3.43145814067e-10, cumulative = -1.34021405981e-06
DILUPBiCGStab:  Solving for epsilon, Initial residual = 5.88759866532e-10, Final residual = 2.5659464336e-15, No Iterations 3
DILUPBiCGStab:  Solving for k, Initial residual = 5.19724321073e-09, Final residual = 1.42771020283e-13, No Iterations 3
ExecutionTime = 19.08 s  ClockTime = 21 s

volFieldValue minmaxdomain_scalar write:
--> FOAM Warning : 
    From Foam::label Foam::functionObjects::fieldValues::volFieldValue::writeAll(const Foam::scalarField&, const Foam::scalarField&)
    in file fieldValues/volFieldValue/volFieldValue.C at line 160
    Requested field omega not found in database and not processed
--> FOAM Warning : 
    From Foam::label Foam::functionObjects::fieldValues::volFieldValue::writeAll(const Foam::scalarField&, const Foam::scalarField&)
    in file fieldValues/volFieldValue/volFieldValue.C at line 160
    Requested field nuTilda not found in database and not processed

volFieldValue minmaxdomain_vector write:

volFieldValue mindomain_scalar write:
    min(region0) of p = 0.00455999456619
    min(region0) of k = 5.77124604408e-05
--> FOAM Warning : 
    From Foam::label Foam::functionObjects::fieldValues::volFieldValue::writeAll(const Foam::scalarField&, const Foam::scalarField&)
    in file fieldValues/volFieldValue/volFieldValue.C at line 160
    Requested field omega not found in database and not processed
    min(region0) of nut = 1.78805237618e-06
    min(region0) of epsilon = 1.58167930178e-05
--> FOAM Warning : 
    From Foam::label Foam::functionObjects::fieldValues::volFieldValue::writeAll(const Foam::scalarField&, const Foam::scalarField&)
    in file fieldValues/volFieldValue/volFieldValue.C at line 160
    Requested field nuTilda not found in database and not processed

volFieldValue mindomain_vector write:

volFieldValue maxdomain_scalar write:
    max(region0) of p = 0.995627538866
    max(region0) of k = 0.0314458361199
--> FOAM Warning : 
    From Foam::label Foam::functionObjects::fieldValues::volFieldValue::writeAll(const Foam::scalarField&, const Foam::scalarField&)
    in file fieldValues/volFieldValue/volFieldValue.C at line 160
    Requested field omega not found in database and not processed
    max(region0) of nut = 0.000893563482373
    max(region0) of epsilon = 5.32317149194
--> FOAM Warning : 
    From Foam::label Foam::functionObjects::fieldValues::volFieldValue::writeAll(const Foam::scalarField&, const Foam::scalarField&)
    in file fieldValues/volFieldValue/volFieldValue.C at line 160
    Requested field nuTilda not found in database and not processed

volFieldValue maxdomain_vector write:

Time = 997

DILUPBiCGStab:  Solving for Ux, Initial residual = 6.02985495148e-09, Final residual = 2.3190383683e-13, No Iterations 3
DILUPBiCGStab:  Solving for Uy, Initial residual = 1.50732301707e-08, Final residual = 4.61103080795e-12, No Iterations 3
DILUPBiCGStab:  Solving for Uz, Initial residual = 0.521716336568, Final residual = 6.57367432772e-09, No Iterations 7
DICPCG:  Solving for p, Initial residual = 4.60695955757e-09, Final residual = 8.86021226408e-09, No Iterations 84
DICPCG:  Solving for p, Initial residual = 8.86044702307e-09, Final residual = 4.60398326014e-09, No Iterations 3
time step continuity errors : sum local = 1.60167834071e-09, global = 1.40431352302e-11, cumulative = -1.34020001668e-06
DILUPBiCGStab:  Solving for epsilon, Initial residual = 5.70433992614e-10, Final residual = 3.95222535388e-15, No Iterations 3
DILUPBiCGStab:  Solving for k, Initial residual = 3.66947283715e-09, Final residual = 7.05089442163e-14, No Iterations 3
ExecutionTime = 19.1 s  ClockTime = 21 s

volFieldValue minmaxdomain_scalar write:
--> FOAM Warning : 
    From Foam::label Foam::functionObjects::fieldValues::volFieldValue::writeAll(const Foam::scalarField&, const Foam::scalarField&)
    in file fieldValues/volFieldValue/volFieldValue.C at line 160
    Requested field omega not found in database and not processed
--> FOAM Warning : 
    From Foam::label Foam::functionObjects::fieldValues::volFieldValue::writeAll(const Foam::scalarField&, const Foam::scalarField&)
    in file fieldValues/volFieldValue/volFieldValue.C at line 160
    Requested field nuTilda not found in database and not processed

volFieldValue minmaxdomain_vector write:

volFieldValue mindomain_scalar write:
    min(region0) of p = 0.00455999735854
    min(region0) of k = 5.77124604841e-05
--> FOAM Warning : 
    From Foam::label Foam::functionObjects::fieldValues::volFieldValue::writeAll(const Foam::scalarField&, const Foam::scalarField&)
    in file fieldValues/volFieldValue/volFieldValue.C at line 160
    Requested field omega not found in database and not processed
    min(region0) of nut = 1.78805238281e-06
    min(region0) of epsilon = 1.5816793062e-05
--> FOAM Warning : 
    From Foam::label Foam::functionObjects::fieldValues::volFieldValue::writeAll(const Foam::scalarField&, const Foam::scalarField&)
    in file fieldValues/volFieldValue/volFieldValue.C at line 160
    Requested field nuTilda not found in database and not processed

volFieldValue mindomain_vector write:

volFieldValue maxdomain_scalar write:
    max(region0) of p = 0.995627905047
    max(region0) of k = 0.0314458361197
--> FOAM Warning : 
    From Foam::label Foam::functionObjects::fieldValues::volFieldValue::writeAll(const Foam::scalarField&, const Foam::scalarField&)
    in file fieldValues/volFieldValue/volFieldValue.C at line 160
    Requested field omega not found in database and not processed
    max(region0) of nut = 0.000893563483797
    max(region0) of epsilon = 5.32317149201
--> FOAM Warning : 
    From Foam::label Foam::functionObjects::fieldValues::volFieldValue::writeAll(const Foam::scalarField&, const Foam::scalarField&)
    in file fieldValues/volFieldValue/volFieldValue.C at line 160
    Requested field nuTilda not found in database and not processed

volFieldValue maxdomain_vector write:

Time = 998

DILUPBiCGStab:  Solving for Ux, Initial residual = 4.56876833264e-09, Final residual = 3.15504280446e-13, No Iterations 3
DILUPBiCGStab:  Solving for Uy, Initial residual = 1.83540824542e-08, Final residual = 6.72455042832e-12, No Iterations 3
DILUPBiCGStab:  Solving for Uz, Initial residual = 0.520087272024, Final residual = 2.88736792078e-09, No Iterations 7
DICPCG:  Solving for p, Initial residual = 3.82540904574e-09, Final residual = 9.28587314178e-09, No Iterations 3
DICPCG:  Solving for p, Initial residual = 9.28598301499e-09, Final residual = 2.48217642131e-09, No Iterations 3
time step continuity errors : sum local = 8.63597640349e-10, global = 1.97229937271e-10, cumulative = -1.34000278674e-06
DILUPBiCGStab:  Solving for epsilon, Initial residual = 5.66161529312e-10, Final residual = 1.53045068313e-15, No Iterations 3
DILUPBiCGStab:  Solving for k, Initial residual = 3.64837603351e-09, Final residual = 9.18175808944e-14, No Iterations 3
ExecutionTime = 19.12 s  ClockTime = 21 s

volFieldValue minmaxdomain_scalar write:
--> FOAM Warning : 
    From Foam::label Foam::functionObjects::fieldValues::volFieldValue::writeAll(const Foam::scalarField&, const Foam::scalarField&)
    in file fieldValues/volFieldValue/volFieldValue.C at line 160
    Requested field omega not found in database and not processed
--> FOAM Warning : 
    From Foam::label Foam::functionObjects::fieldValues::volFieldValue::writeAll(const Foam::scalarField&, const Foam::scalarField&)
    in file fieldValues/volFieldValue/volFieldValue.C at line 160
    Requested field nuTilda not found in database and not processed

volFieldValue minmaxdomain_vector write:

volFieldValue mindomain_scalar write:
    min(region0) of p = 0.00455999732513
    min(region0) of k = 5.77124604753e-05
--> FOAM Warning : 
    From Foam::label Foam::functionObjects::fieldValues::volFieldValue::writeAll(const Foam::scalarField&, const Foam::scalarField&)
    in file fieldValues/volFieldValue/volFieldValue.C at line 160
    Requested field omega not found in database and not processed
    min(region0) of nut = 1.78805237668e-06
    min(region0) of epsilon = 1.58167930551e-05
--> FOAM Warning : 
    From Foam::label Foam::functionObjects::fieldValues::volFieldValue::writeAll(const Foam::scalarField&, const Foam::scalarField&)
    in file fieldValues/volFieldValue/volFieldValue.C at line 160
    Requested field nuTilda not found in database and not processed

volFieldValue mindomain_vector write:

volFieldValue maxdomain_scalar write:
    max(region0) of p = 0.995627905179
    max(region0) of k = 0.0314458361198
--> FOAM Warning : 
    From Foam::label Foam::functionObjects::fieldValues::volFieldValue::writeAll(const Foam::scalarField&, const Foam::scalarField&)
    in file fieldValues/volFieldValue/volFieldValue.C at line 160
    Requested field omega not found in database and not processed
    max(region0) of nut = 0.000893563483489
    max(region0) of epsilon = 5.32317149196
--> FOAM Warning : 
    From Foam::label Foam::functionObjects::fieldValues::volFieldValue::writeAll(const Foam::scalarField&, const Foam::scalarField&)
    in file fieldValues/volFieldValue/volFieldValue.C at line 160
    Requested field nuTilda not found in database and not processed

volFieldValue maxdomain_vector write:

Time = 999

DILUPBiCGStab:  Solving for Ux, Initial residual = 3.33778575807e-09, Final residual = 1.88631437034e-13, No Iterations 3
DILUPBiCGStab:  Solving for Uy, Initial residual = 1.1534104676e-08, Final residual = 6.43407930716e-12, No Iterations 3
DILUPBiCGStab:  Solving for Uz, Initial residual = 0.531660426865, Final residual = 3.74324705756e-09, No Iterations 7
DICPCG:  Solving for p, Initial residual = 3.74874254696e-09, Final residual = 7.50315843082e-09, No Iterations 12
DICPCG:  Solving for p, Initial residual = 7.50332475455e-09, Final residual = 5.66183636236e-09, No Iterations 3
time step continuity errors : sum local = 1.9698558677e-09, global = 3.94943056492e-10, cumulative = -1.33960784368e-06
DILUPBiCGStab:  Solving for epsilon, Initial residual = 6.39900453578e-10, Final residual = 1.80034349307e-15, No Iterations 3
DILUPBiCGStab:  Solving for k, Initial residual = 2.45755837031e-09, Final residual = 1.25316946401e-13, No Iterations 3
ExecutionTime = 19.13 s  ClockTime = 21 s

volFieldValue minmaxdomain_scalar write:
--> FOAM Warning : 
    From Foam::label Foam::functionObjects::fieldValues::volFieldValue::writeAll(const Foam::scalarField&, const Foam::scalarField&)
    in file fieldValues/volFieldValue/volFieldValue.C at line 160
    Requested field omega not found in database and not processed
--> FOAM Warning : 
    From Foam::label Foam::functionObjects::fieldValues::volFieldValue::writeAll(const Foam::scalarField&, const Foam::scalarField&)
    in file fieldValues/volFieldValue/volFieldValue.C at line 160
    Requested field nuTilda not found in database and not processed

volFieldValue minmaxdomain_vector write:

volFieldValue mindomain_scalar write:
    min(region0) of p = 0.00455999710929
    min(region0) of k = 5.77124604931e-05
--> FOAM Warning : 
    From Foam::label Foam::functionObjects::fieldValues::volFieldValue::writeAll(const Foam::scalarField&, const Foam::scalarField&)
    in file fieldValues/volFieldValue/volFieldValue.C at line 160
    Requested field omega not found in database and not processed
    min(region0) of nut = 1.78805238196e-06
    min(region0) of epsilon = 1.58167930739e-05
--> FOAM Warning : 
    From Foam::label Foam::functionObjects::fieldValues::volFieldValue::writeAll(const Foam::scalarField&, const Foam::scalarField&)
    in file fieldValues/volFieldValue/volFieldValue.C at line 160
    Requested field nuTilda not found in database and not processed

volFieldValue mindomain_vector write:

volFieldValue maxdomain_scalar write:
    max(region0) of p = 0.995627908354
    max(region0) of k = 0.0314458361196
--> FOAM Warning : 
    From Foam::label Foam::functionObjects::fieldValues::volFieldValue::writeAll(const Foam::scalarField&, const Foam::scalarField&)
    in file fieldValues/volFieldValue/volFieldValue.C at line 160
    Requested field omega not found in database and not processed
    max(region0) of nut = 0.000893563482108
    max(region0) of epsilon = 5.32317149199
--> FOAM Warning : 
    From Foam::label Foam::functionObjects::fieldValues::volFieldValue::writeAll(const Foam::scalarField&, const Foam::scalarField&)
    in file fieldValues/volFieldValue/volFieldValue.C at line 160
    Requested field nuTilda not found in database and not processed

volFieldValue maxdomain_vector write:

Time = 1000

DILUPBiCGStab:  Solving for Ux, Initial residual = 3.23532378413e-09, Final residual = 3.86171526387e-13, No Iterations 3
DILUPBiCGStab:  Solving for Uy, Initial residual = 1.63745266845e-08, Final residual = 1.98274891337e-11, No Iterations 3
DILUPBiCGStab:  Solving for Uz, Initial residual = 0.50865222439, Final residual = 4.4305450882e-09, No Iterations 7
DICPCG:  Solving for p, Initial residual = 5.34497343655e-09, Final residual = 8.1766007603e-09, No Iterations 6
DICPCG:  Solving for p, Initial residual = 8.17646109648e-09, Final residual = 6.61441649216e-09, No Iterations 3
time step continuity errors : sum local = 2.30131058352e-09, global = 6.22995084064e-10, cumulative = -1.3389848486e-06
DILUPBiCGStab:  Solving for epsilon, Initial residual = 1.56107590529e-10, Final residual = 2.28372218943e-15, No Iterations 3
DILUPBiCGStab:  Solving for k, Initial residual = 1.95143306308e-09, Final residual = 1.46540252435e-13, No Iterations 3
ExecutionTime = 19.16 s  ClockTime = 21 s

volFieldValue minmaxdomain_scalar write:
--> FOAM Warning : 
    From Foam::label Foam::functionObjects::fieldValues::volFieldValue::writeAll(const Foam::scalarField&, const Foam::scalarField&)
    in file fieldValues/volFieldValue/volFieldValue.C at line 160
    Requested field omega not found in database and not processed
--> FOAM Warning : 
    From Foam::label Foam::functionObjects::fieldValues::volFieldValue::writeAll(const Foam::scalarField&, const Foam::scalarField&)
    in file fieldValues/volFieldValue/volFieldValue.C at line 160
    Requested field nuTilda not found in database and not processed

volFieldValue minmaxdomain_vector write:

volFieldValue mindomain_scalar write:
    min(region0) of p = 0.00455999708107
    min(region0) of k = 5.77124605299e-05
--> FOAM Warning : 
    From Foam::label Foam::functionObjects::fieldValues::volFieldValue::writeAll(const Foam::scalarField&, const Foam::scalarField&)
    in file fieldValues/volFieldValue/volFieldValue.C at line 160
    Requested field omega not found in database and not processed
    min(region0) of nut = 1.78805237738e-06
    min(region0) of epsilon = 1.58167930977e-05
--> FOAM Warning : 
    From Foam::label Foam::functionObjects::fieldValues::volFieldValue::writeAll(const Foam::scalarField&, const Foam::scalarField&)
    in file fieldValues/volFieldValue/volFieldValue.C at line 160
    Requested field nuTilda not found in database and not processed

volFieldValue mindomain_vector write:

volFieldValue maxdomain_scalar write:
    max(region0) of p = 0.995627908366
    max(region0) of k = 0.0314458361197
--> FOAM Warning : 
    From Foam::label Foam::functionObjects::fieldValues::volFieldValue::writeAll(const Foam::scalarField&, const Foam::scalarField&)
    in file fieldValues/volFieldValue/volFieldValue.C at line 160
    Requested field omega not found in database and not processed
    max(region0) of nut = 0.00089356348048
    max(region0) of epsilon = 5.32317149194
--> FOAM Warning : 
    From Foam::label Foam::functionObjects::fieldValues::volFieldValue::writeAll(const Foam::scalarField&, const Foam::scalarField&)
    in file fieldValues/volFieldValue/volFieldValue.C at line 160
    Requested field nuTilda not found in database and not processed

volFieldValue maxdomain_vector write:

yPlus yplus write:
    writing field yPlus
    patch top y+ : min = 3.05503687269, max = 4.46499256239, average = 3.15089674178
wallShearStress wallShearStress1 write:
    writing field wallShearStress
    min/max(top) = (-0.0113108622879 -1.22947999985e-07 -2.1765423507e-17), (-0.00529527273455 2.84032506255e-05 4.1608388118e-17)
End

