/*---------------------------------------------------------------------------*\
| =========                 |                                                 |
| \\      /  F ield         | OpenFOAM: The Open Source CFD Toolbox           |
|  \\    /   O peration     | Version:  2206                                  |
|   \\  /    A nd           | Website:  www.openfoam.com                      |
|    \\/     M anipulation  |                                                 |
\*---------------------------------------------------------------------------*/
Build  : _da9441b0-20260127 OPENFOAM=2206 patch=260127 version=2206
Arch   : "LSB;label=32;scalar=64"
Exec   : simpleFoam
Date   : Jun 10 2026
Time   : 21:22:34
Host   : NotebookdoDan
PID    : 36089
I/O    : uncollated
Case   : /home/danilom/Trabalho_Modelagem_Turbulencia/GT1/turbulent_wedge
nProcs : 1
trapFpe: Floating point exception trapping enabled (FOAM_SIGFPE).
fileModificationChecking : Monitoring run-time modified files using timeStampMaster (fileModificationSkew 5, maxFileModificationPolls 20)
allowSystemOperations : Allowing user-supplied system call operations

// * * * * * * * * * * * * * * * * * * * * * * * * * * * * * * * * * * * * * //
Create time

--> FOAM Warning : 
    From static Foam::IOstreamOption::compressionType Foam::IOstreamOption::compressionEnum(const Foam::word&, compressionType)
    in file db/IOstreams/IOstreams/IOstreamOption.C at line 115
    Unknown compression specifier 'uncompressed', using compression off
Create mesh for time = 0


SIMPLE: no convergence criteria found. Calculations will run for 1000 steps.

Reading field p

Reading field U

Reading/calculating face flux field phi

Selecting incompressible transport model Newtonian
Selecting turbulence model type RAS
Selecting RAS turbulence model SpalartAllmaras
Selecting patchDistMethod meshWave
RAS
{
    RASModel        SpalartAllmaras;
    turbulence      on;
    printCoeffs     on;
    sigmaNut        0.666666666667;
    kappa           0.41;
    Cb1             0.1355;
    Cb2             0.622;
    Cw2             0.3;
    Cw3             2;
    Cv1             7.1;
    Cs              0.3;
}

No MRF models present

No finite volume options present

Starting time loop

wallShearStress wallShearStress1:
    processing all wall patches

Time = 1

DILUPBiCGStab:  Solving for Ux, Initial residual = 1, Final residual = 7.05934436561e-09, No Iterations 9
DILUPBiCGStab:  Solving for Uy, Initial residual = 0.601704648428, Final residual = 3.39296723565e-09, No Iterations 9
DILUPBiCGStab:  Solving for Uz, Initial residual = 0.492718154962, Final residual = 8.36451357144e-09, No Iterations 8
DICPCG:  Solving for p, Initial residual = 1, Final residual = 0.000898921411419, No Iterations 102
DICPCG:  Solving for p, Initial residual = 4.45207463224e-06, Final residual = 1.29479793592e-08, No Iterations 3
time step continuity errors : sum local = 9.45179769341e-09, global = -1.6774192752e-10, cumulative = -1.6774192752e-10
DILUPBiCGStab:  Solving for nuTilda, Initial residual = 1, Final residual = 4.55229991509e-09, No Iterations 7
ExecutionTime = 0.03 s  ClockTime = 0 s

volFieldValue minmaxdomain_scalar write:
--> FOAM Warning : 
    From Foam::label Foam::functionObjects::fieldValues::volFieldValue::writeAll(const Foam::scalarField&, const Foam::scalarField&)
    in file fieldValues/volFieldValue/volFieldValue.C at line 160
    Requested field k not found in database and not processed
--> FOAM Warning : 
    From Foam::label Foam::functionObjects::fieldValues::volFieldValue::writeAll(const Foam::scalarField&, const Foam::scalarField&)
    in file fieldValues/volFieldValue/volFieldValue.C at line 160
    Requested field omega not found in database and not processed
--> FOAM Warning : 
    From Foam::label Foam::functionObjects::fieldValues::volFieldValue::writeAll(const Foam::scalarField&, const Foam::scalarField&)
    in file fieldValues/volFieldValue/volFieldValue.C at line 160
    Requested field epsilon not found in database and not processed

volFieldValue minmaxdomain_vector write:

volFieldValue mindomain_scalar write:
    min(region0) of p = 0.00224018353696
--> FOAM Warning : 
    From Foam::label Foam::functionObjects::fieldValues::volFieldValue::writeAll(const Foam::scalarField&, const Foam::scalarField&)
    in file fieldValues/volFieldValue/volFieldValue.C at line 160
    Requested field k not found in database and not processed
--> FOAM Warning : 
    From Foam::label Foam::functionObjects::fieldValues::volFieldValue::writeAll(const Foam::scalarField&, const Foam::scalarField&)
    in file fieldValues/volFieldValue/volFieldValue.C at line 160
    Requested field omega not found in database and not processed
    min(region0) of nut = 4.11854568194e-09
--> FOAM Warning : 
    From Foam::label Foam::functionObjects::fieldValues::volFieldValue::writeAll(const Foam::scalarField&, const Foam::scalarField&)
    in file fieldValues/volFieldValue/volFieldValue.C at line 160
    Requested field epsilon not found in database and not processed
    min(region0) of nuTilda = 6.19729132824e-06

volFieldValue mindomain_vector write:

volFieldValue maxdomain_scalar write:
    max(region0) of p = 0.446773090353
--> FOAM Warning : 
    From Foam::label Foam::functionObjects::fieldValues::volFieldValue::writeAll(const Foam::scalarField&, const Foam::scalarField&)
    in file fieldValues/volFieldValue/volFieldValue.C at line 160
    Requested field k not found in database and not processed
--> FOAM Warning : 
    From Foam::label Foam::functionObjects::fieldValues::volFieldValue::writeAll(const Foam::scalarField&, const Foam::scalarField&)
    in file fieldValues/volFieldValue/volFieldValue.C at line 160
    Requested field omega not found in database and not processed
    max(region0) of nut = 1.39806401285e-05
--> FOAM Warning : 
    From Foam::label Foam::functionObjects::fieldValues::volFieldValue::writeAll(const Foam::scalarField&, const Foam::scalarField&)
    in file fieldValues/volFieldValue/volFieldValue.C at line 160
    Requested field epsilon not found in database and not processed
    max(region0) of nuTilda = 5.12194925406e-05

volFieldValue maxdomain_vector write:

Time = 2

DILUPBiCGStab:  Solving for Ux, Initial residual = 0.192365500635, Final residual = 5.72779654172e-09, No Iterations 9
DILUPBiCGStab:  Solving for Uy, Initial residual = 0.400539921792, Final residual = 8.6280761228e-09, No Iterations 10
DILUPBiCGStab:  Solving for Uz, Initial residual = 0.685313583735, Final residual = 3.45109158892e-09, No Iterations 8
DICPCG:  Solving for p, Initial residual = 0.0112542304204, Final residual = 7.13043069228e-05, No Iterations 101
DICPCG:  Solving for p, Initial residual = 7.95734149263e-05, Final residual = 4.83613665515e-07, No Iterations 3
time step continuity errors : sum local = 3.02410208992e-07, global = -1.18138469538e-08, cumulative = -1.19815888813e-08
DILUPBiCGStab:  Solving for nuTilda, Initial residual = 0.24383927976, Final residual = 6.36152172819e-09, No Iterations 7
ExecutionTime = 0.05 s  ClockTime = 0 s

volFieldValue minmaxdomain_scalar write:
--> FOAM Warning : 
    From Foam::label Foam::functionObjects::fieldValues::volFieldValue::writeAll(const Foam::scalarField&, const Foam::scalarField&)
    in file fieldValues/volFieldValue/volFieldValue.C at line 160
    Requested field k not found in database and not processed
--> FOAM Warning : 
    From Foam::label Foam::functionObjects::fieldValues::volFieldValue::writeAll(const Foam::scalarField&, const Foam::scalarField&)
    in file fieldValues/volFieldValue/volFieldValue.C at line 160
    Requested field omega not found in database and not processed
--> FOAM Warning : 
    From Foam::label Foam::functionObjects::fieldValues::volFieldValue::writeAll(const Foam::scalarField&, const Foam::scalarField&)
    in file fieldValues/volFieldValue/volFieldValue.C at line 160
    Requested field epsilon not found in database and not processed

volFieldValue minmaxdomain_vector write:

volFieldValue mindomain_scalar write:
    min(region0) of p = 0.00196197523532
--> FOAM Warning : 
    From Foam::label Foam::functionObjects::fieldValues::volFieldValue::writeAll(const Foam::scalarField&, const Foam::scalarField&)
    in file fieldValues/volFieldValue/volFieldValue.C at line 160
    Requested field k not found in database and not processed
--> FOAM Warning : 
    From Foam::label Foam::functionObjects::fieldValues::volFieldValue::writeAll(const Foam::scalarField&, const Foam::scalarField&)
    in file fieldValues/volFieldValue/volFieldValue.C at line 160
    Requested field omega not found in database and not processed
    min(region0) of nut = 7.8884188138e-08
--> FOAM Warning : 
    From Foam::label Foam::functionObjects::fieldValues::volFieldValue::writeAll(const Foam::scalarField&, const Foam::scalarField&)
    in file fieldValues/volFieldValue/volFieldValue.C at line 160
    Requested field epsilon not found in database and not processed
    min(region0) of nuTilda = 1.29823402303e-05

volFieldValue mindomain_vector write:

volFieldValue maxdomain_scalar write:
    max(region0) of p = 0.444440797147
--> FOAM Warning : 
    From Foam::label Foam::functionObjects::fieldValues::volFieldValue::writeAll(const Foam::scalarField&, const Foam::scalarField&)
    in file fieldValues/volFieldValue/volFieldValue.C at line 160
    Requested field k not found in database and not processed
--> FOAM Warning : 
    From Foam::label Foam::functionObjects::fieldValues::volFieldValue::writeAll(const Foam::scalarField&, const Foam::scalarField&)
    in file fieldValues/volFieldValue/volFieldValue.C at line 160
    Requested field omega not found in database and not processed
    max(region0) of nut = 1.52141017419e-05
--> FOAM Warning : 
    From Foam::label Foam::functionObjects::fieldValues::volFieldValue::writeAll(const Foam::scalarField&, const Foam::scalarField&)
    in file fieldValues/volFieldValue/volFieldValue.C at line 160
    Requested field epsilon not found in database and not processed
    max(region0) of nuTilda = 5.26097934884e-05

volFieldValue maxdomain_vector write:

Time = 3

DILUPBiCGStab:  Solving for Ux, Initial residual = 0.0677792228512, Final residual = 5.57997461369e-09, No Iterations 8
DILUPBiCGStab:  Solving for Uy, Initial residual = 0.314458671683, Final residual = 7.36961098338e-09, No Iterations 9
DILUPBiCGStab:  Solving for Uz, Initial residual = 0.644385282174, Final residual = 9.91231326755e-09, No Iterations 7
DICPCG:  Solving for p, Initial residual = 0.0124620792753, Final residual = 6.89836133742e-05, No Iterations 101
DICPCG:  Solving for p, Initial residual = 0.000101557339144, Final residual = 5.7974161151e-07, No Iterations 3
time step continuity errors : sum local = 2.45754211704e-07, global = -8.80952982296e-09, cumulative = -2.07911187042e-08
DILUPBiCGStab:  Solving for nuTilda, Initial residual = 0.195958339652, Final residual = 2.99675988509e-09, No Iterations 8
ExecutionTime = 0.08 s  ClockTime = 0 s

volFieldValue minmaxdomain_scalar write:
--> FOAM Warning : 
    From Foam::label Foam::functionObjects::fieldValues::volFieldValue::writeAll(const Foam::scalarField&, const Foam::scalarField&)
    in file fieldValues/volFieldValue/volFieldValue.C at line 160
    Requested field k not found in database and not processed
--> FOAM Warning : 
    From Foam::label Foam::functionObjects::fieldValues::volFieldValue::writeAll(const Foam::scalarField&, const Foam::scalarField&)
    in file fieldValues/volFieldValue/volFieldValue.C at line 160
    Requested field omega not found in database and not processed
--> FOAM Warning : 
    From Foam::label Foam::functionObjects::fieldValues::volFieldValue::writeAll(const Foam::scalarField&, const Foam::scalarField&)
    in file fieldValues/volFieldValue/volFieldValue.C at line 160
    Requested field epsilon not found in database and not processed

volFieldValue minmaxdomain_vector write:

volFieldValue mindomain_scalar write:
    min(region0) of p = 0.00133083968781
--> FOAM Warning : 
    From Foam::label Foam::functionObjects::fieldValues::volFieldValue::writeAll(const Foam::scalarField&, const Foam::scalarField&)
    in file fieldValues/volFieldValue/volFieldValue.C at line 160
    Requested field k not found in database and not processed
--> FOAM Warning : 
    From Foam::label Foam::functionObjects::fieldValues::volFieldValue::writeAll(const Foam::scalarField&, const Foam::scalarField&)
    in file fieldValues/volFieldValue/volFieldValue.C at line 160
    Requested field omega not found in database and not processed
    min(region0) of nut = 8.07676793898e-10
--> FOAM Warning : 
    From Foam::label Foam::functionObjects::fieldValues::volFieldValue::writeAll(const Foam::scalarField&, const Foam::scalarField&)
    in file fieldValues/volFieldValue/volFieldValue.C at line 160
    Requested field epsilon not found in database and not processed
    min(region0) of nuTilda = 4.12358006057e-06

volFieldValue mindomain_vector write:

volFieldValue maxdomain_scalar write:
    max(region0) of p = 0.352670794464
--> FOAM Warning : 
    From Foam::label Foam::functionObjects::fieldValues::volFieldValue::writeAll(const Foam::scalarField&, const Foam::scalarField&)
    in file fieldValues/volFieldValue/volFieldValue.C at line 160
    Requested field k not found in database and not processed
--> FOAM Warning : 
    From Foam::label Foam::functionObjects::fieldValues::volFieldValue::writeAll(const Foam::scalarField&, const Foam::scalarField&)
    in file fieldValues/volFieldValue/volFieldValue.C at line 160
    Requested field omega not found in database and not processed
    max(region0) of nut = 1.71907863855e-05
--> FOAM Warning : 
    From Foam::label Foam::functionObjects::fieldValues::volFieldValue::writeAll(const Foam::scalarField&, const Foam::scalarField&)
    in file fieldValues/volFieldValue/volFieldValue.C at line 160
    Requested field epsilon not found in database and not processed
    max(region0) of nuTilda = 5.47274353826e-05

volFieldValue maxdomain_vector write:

Time = 4

DILUPBiCGStab:  Solving for Ux, Initial residual = 0.0451623321237, Final residual = 3.324899913e-09, No Iterations 8
DILUPBiCGStab:  Solving for Uy, Initial residual = 0.238305710193, Final residual = 6.60771407937e-09, No Iterations 9
DILUPBiCGStab:  Solving for Uz, Initial residual = 0.72303917424, Final residual = 4.16641713331e-09, No Iterations 7
DICPCG:  Solving for p, Initial residual = 0.0174590922834, Final residual = 9.09273268331e-05, No Iterations 101
DICPCG:  Solving for p, Initial residual = 0.000112584889991, Final residual = 6.07490495657e-07, No Iterations 3
time step continuity errors : sum local = 2.13971945462e-07, global = -7.11940978121e-09, cumulative = -2.79105284855e-08
DILUPBiCGStab:  Solving for nuTilda, Initial residual = 0.256097023078, Final residual = 8.33684199698e-09, No Iterations 8
ExecutionTime = 0.09 s  ClockTime = 0 s

volFieldValue minmaxdomain_scalar write:
--> FOAM Warning : 
    From Foam::label Foam::functionObjects::fieldValues::volFieldValue::writeAll(const Foam::scalarField&, const Foam::scalarField&)
    in file fieldValues/volFieldValue/volFieldValue.C at line 160
    Requested field k not found in database and not processed
--> FOAM Warning : 
    From Foam::label Foam::functionObjects::fieldValues::volFieldValue::writeAll(const Foam::scalarField&, const Foam::scalarField&)
    in file fieldValues/volFieldValue/volFieldValue.C at line 160
    Requested field omega not found in database and not processed
--> FOAM Warning : 
    From Foam::label Foam::functionObjects::fieldValues::volFieldValue::writeAll(const Foam::scalarField&, const Foam::scalarField&)
    in file fieldValues/volFieldValue/volFieldValue.C at line 160
    Requested field epsilon not found in database and not processed

volFieldValue minmaxdomain_vector write:

volFieldValue mindomain_scalar write:
    min(region0) of p = 0.00106393611413
--> FOAM Warning : 
    From Foam::label Foam::functionObjects::fieldValues::volFieldValue::writeAll(const Foam::scalarField&, const Foam::scalarField&)
    in file fieldValues/volFieldValue/volFieldValue.C at line 160
    Requested field k not found in database and not processed
--> FOAM Warning : 
    From Foam::label Foam::functionObjects::fieldValues::volFieldValue::writeAll(const Foam::scalarField&, const Foam::scalarField&)
    in file fieldValues/volFieldValue/volFieldValue.C at line 160
    Requested field omega not found in database and not processed
    min(region0) of nut = 9.31381914615e-08
--> FOAM Warning : 
    From Foam::label Foam::functionObjects::fieldValues::volFieldValue::writeAll(const Foam::scalarField&, const Foam::scalarField&)
    in file fieldValues/volFieldValue/volFieldValue.C at line 160
    Requested field epsilon not found in database and not processed
    min(region0) of nuTilda = 1.35355338873e-05

volFieldValue mindomain_vector write:

volFieldValue maxdomain_scalar write:
    max(region0) of p = 0.309866471584
--> FOAM Warning : 
    From Foam::label Foam::functionObjects::fieldValues::volFieldValue::writeAll(const Foam::scalarField&, const Foam::scalarField&)
    in file fieldValues/volFieldValue/volFieldValue.C at line 160
    Requested field k not found in database and not processed
--> FOAM Warning : 
    From Foam::label Foam::functionObjects::fieldValues::volFieldValue::writeAll(const Foam::scalarField&, const Foam::scalarField&)
    in file fieldValues/volFieldValue/volFieldValue.C at line 160
    Requested field omega not found in database and not processed
    max(region0) of nut = 2.94075944339e-05
--> FOAM Warning : 
    From Foam::label Foam::functionObjects::fieldValues::volFieldValue::writeAll(const Foam::scalarField&, const Foam::scalarField&)
    in file fieldValues/volFieldValue/volFieldValue.C at line 160
    Requested field epsilon not found in database and not processed
    max(region0) of nuTilda = 6.6006700386e-05

volFieldValue maxdomain_vector write:

Time = 5

DILUPBiCGStab:  Solving for Ux, Initial residual = 0.0526377344295, Final residual = 9.3564383369e-09, No Iterations 7
DILUPBiCGStab:  Solving for Uy, Initial residual = 0.230457217219, Final residual = 2.76522704524e-09, No Iterations 9
DILUPBiCGStab:  Solving for Uz, Initial residual = 0.702644397037, Final residual = 3.03942175581e-09, No Iterations 7
DICPCG:  Solving for p, Initial residual = 0.0220095431097, Final residual = 9.3706789068e-05, No Iterations 101
DICPCG:  Solving for p, Initial residual = 9.0927469144e-05, Final residual = 4.39518913977e-07, No Iterations 3
time step continuity errors : sum local = 1.56253512919e-07, global = -6.93750331015e-09, cumulative = -3.48480317956e-08
DILUPBiCGStab:  Solving for nuTilda, Initial residual = 0.210094537894, Final residual = 9.12918936415e-09, No Iterations 7
ExecutionTime = 0.11 s  ClockTime = 0 s

volFieldValue minmaxdomain_scalar write:
--> FOAM Warning : 
    From Foam::label Foam::functionObjects::fieldValues::volFieldValue::writeAll(const Foam::scalarField&, const Foam::scalarField&)
    in file fieldValues/volFieldValue/volFieldValue.C at line 160
    Requested field k not found in database and not processed
--> FOAM Warning : 
    From Foam::label Foam::functionObjects::fieldValues::volFieldValue::writeAll(const Foam::scalarField&, const Foam::scalarField&)
    in file fieldValues/volFieldValue/volFieldValue.C at line 160
    Requested field omega not found in database and not processed
--> FOAM Warning : 
    From Foam::label Foam::functionObjects::fieldValues::volFieldValue::writeAll(const Foam::scalarField&, const Foam::scalarField&)
    in file fieldValues/volFieldValue/volFieldValue.C at line 160
    Requested field epsilon not found in database and not processed

volFieldValue minmaxdomain_vector write:

volFieldValue mindomain_scalar write:
    min(region0) of p = 0.0010733079995
--> FOAM Warning : 
    From Foam::label Foam::functionObjects::fieldValues::volFieldValue::writeAll(const Foam::scalarField&, const Foam::scalarField&)
    in file fieldValues/volFieldValue/volFieldValue.C at line 160
    Requested field k not found in database and not processed
--> FOAM Warning : 
    From Foam::label Foam::functionObjects::fieldValues::volFieldValue::writeAll(const Foam::scalarField&, const Foam::scalarField&)
    in file fieldValues/volFieldValue/volFieldValue.C at line 160
    Requested field omega not found in database and not processed
    min(region0) of nut = 9.14135350237e-10
--> FOAM Warning : 
    From Foam::label Foam::functionObjects::fieldValues::volFieldValue::writeAll(const Foam::scalarField&, const Foam::scalarField&)
    in file fieldValues/volFieldValue/volFieldValue.C at line 160
    Requested field epsilon not found in database and not processed
    min(region0) of nuTilda = 4.25323839176e-06

volFieldValue mindomain_vector write:

volFieldValue maxdomain_scalar write:
    max(region0) of p = 0.32058306524
--> FOAM Warning : 
    From Foam::label Foam::functionObjects::fieldValues::volFieldValue::writeAll(const Foam::scalarField&, const Foam::scalarField&)
    in file fieldValues/volFieldValue/volFieldValue.C at line 160
    Requested field k not found in database and not processed
--> FOAM Warning : 
    From Foam::label Foam::functionObjects::fieldValues::volFieldValue::writeAll(const Foam::scalarField&, const Foam::scalarField&)
    in file fieldValues/volFieldValue/volFieldValue.C at line 160
    Requested field omega not found in database and not processed
    max(region0) of nut = 4.18221362919e-05
--> FOAM Warning : 
    From Foam::label Foam::functionObjects::fieldValues::volFieldValue::writeAll(const Foam::scalarField&, const Foam::scalarField&)
    in file fieldValues/volFieldValue/volFieldValue.C at line 160
    Requested field epsilon not found in database and not processed
    max(region0) of nuTilda = 7.59663621473e-05

volFieldValue maxdomain_vector write:

Time = 6

DILUPBiCGStab:  Solving for Ux, Initial residual = 0.0413639051779, Final residual = 5.51607051855e-09, No Iterations 7
DILUPBiCGStab:  Solving for Uy, Initial residual = 0.210468689456, Final residual = 9.92215418228e-09, No Iterations 8
DILUPBiCGStab:  Solving for Uz, Initial residual = 0.630035536987, Final residual = 7.95860485862e-09, No Iterations 7
DICPCG:  Solving for p, Initial residual = 0.0232002318947, Final residual = 0.000229200074622, No Iterations 89
DICPCG:  Solving for p, Initial residual = 0.000227518783011, Final residual = 1.45614623644e-06, No Iterations 99
time step continuity errors : sum local = 5.0621631692e-07, global = -2.8891723931e-09, cumulative = -3.77372041887e-08
DILUPBiCGStab:  Solving for nuTilda, Initial residual = 0.19597341446, Final residual = 8.93821751925e-09, No Iterations 7
ExecutionTime = 0.13 s  ClockTime = 0 s

volFieldValue minmaxdomain_scalar write:
--> FOAM Warning : 
    From Foam::label Foam::functionObjects::fieldValues::volFieldValue::writeAll(const Foam::scalarField&, const Foam::scalarField&)
    in file fieldValues/volFieldValue/volFieldValue.C at line 160
    Requested field k not found in database and not processed
--> FOAM Warning : 
    From Foam::label Foam::functionObjects::fieldValues::volFieldValue::writeAll(const Foam::scalarField&, const Foam::scalarField&)
    in file fieldValues/volFieldValue/volFieldValue.C at line 160
    Requested field omega not found in database and not processed
--> FOAM Warning : 
    From Foam::label Foam::functionObjects::fieldValues::volFieldValue::writeAll(const Foam::scalarField&, const Foam::scalarField&)
    in file fieldValues/volFieldValue/volFieldValue.C at line 160
    Requested field epsilon not found in database and not processed

volFieldValue minmaxdomain_vector write:

volFieldValue mindomain_scalar write:
    min(region0) of p = 0.00103656525446
--> FOAM Warning : 
    From Foam::label Foam::functionObjects::fieldValues::volFieldValue::writeAll(const Foam::scalarField&, const Foam::scalarField&)
    in file fieldValues/volFieldValue/volFieldValue.C at line 160
    Requested field k not found in database and not processed
--> FOAM Warning : 
    From Foam::label Foam::functionObjects::fieldValues::volFieldValue::writeAll(const Foam::scalarField&, const Foam::scalarField&)
    in file fieldValues/volFieldValue/volFieldValue.C at line 160
    Requested field omega not found in database and not processed
    min(region0) of nut = 9.58800227494e-08
--> FOAM Warning : 
    From Foam::label Foam::functionObjects::fieldValues::volFieldValue::writeAll(const Foam::scalarField&, const Foam::scalarField&)
    in file fieldValues/volFieldValue/volFieldValue.C at line 160
    Requested field epsilon not found in database and not processed
    min(region0) of nuTilda = 1.36345871842e-05

volFieldValue mindomain_vector write:

volFieldValue maxdomain_scalar write:
    max(region0) of p = 0.324252762727
--> FOAM Warning : 
    From Foam::label Foam::functionObjects::fieldValues::volFieldValue::writeAll(const Foam::scalarField&, const Foam::scalarField&)
    in file fieldValues/volFieldValue/volFieldValue.C at line 160
    Requested field k not found in database and not processed
--> FOAM Warning : 
    From Foam::label Foam::functionObjects::fieldValues::volFieldValue::writeAll(const Foam::scalarField&, const Foam::scalarField&)
    in file fieldValues/volFieldValue/volFieldValue.C at line 160
    Requested field omega not found in database and not processed
    max(region0) of nut = 5.65843596118e-05
--> FOAM Warning : 
    From Foam::label Foam::functionObjects::fieldValues::volFieldValue::writeAll(const Foam::scalarField&, const Foam::scalarField&)
    in file fieldValues/volFieldValue/volFieldValue.C at line 160
    Requested field epsilon not found in database and not processed
    max(region0) of nuTilda = 8.71649475837e-05

volFieldValue maxdomain_vector write:

Time = 7

DILUPBiCGStab:  Solving for Ux, Initial residual = 0.0455247523117, Final residual = 6.99487663954e-09, No Iterations 7
DILUPBiCGStab:  Solving for Uy, Initial residual = 0.189453085621, Final residual = 1.27469981508e-09, No Iterations 9
DILUPBiCGStab:  Solving for Uz, Initial residual = 0.585175186108, Final residual = 4.09465425927e-09, No Iterations 7
DICPCG:  Solving for p, Initial residual = 0.0243410751439, Final residual = 0.000198680238475, No Iterations 100
DICPCG:  Solving for p, Initial residual = 0.000182361567261, Final residual = 1.79125192595e-06, No Iterations 3
time step continuity errors : sum local = 6.35476259667e-07, global = -4.69341505304e-10, cumulative = -3.8206545694e-08
DILUPBiCGStab:  Solving for nuTilda, Initial residual = 0.177099885174, Final residual = 7.43069167695e-09, No Iterations 7
ExecutionTime = 0.15 s  ClockTime = 0 s

volFieldValue minmaxdomain_scalar write:
--> FOAM Warning : 
    From Foam::label Foam::functionObjects::fieldValues::volFieldValue::writeAll(const Foam::scalarField&, const Foam::scalarField&)
    in file fieldValues/volFieldValue/volFieldValue.C at line 160
    Requested field k not found in database and not processed
--> FOAM Warning : 
    From Foam::label Foam::functionObjects::fieldValues::volFieldValue::writeAll(const Foam::scalarField&, const Foam::scalarField&)
    in file fieldValues/volFieldValue/volFieldValue.C at line 160
    Requested field omega not found in database and not processed
--> FOAM Warning : 
    From Foam::label Foam::functionObjects::fieldValues::volFieldValue::writeAll(const Foam::scalarField&, const Foam::scalarField&)
    in file fieldValues/volFieldValue/volFieldValue.C at line 160
    Requested field epsilon not found in database and not processed

volFieldValue minmaxdomain_vector write:

volFieldValue mindomain_scalar write:
    min(region0) of p = 0.00110978971509
--> FOAM Warning : 
    From Foam::label Foam::functionObjects::fieldValues::volFieldValue::writeAll(const Foam::scalarField&, const Foam::scalarField&)
    in file fieldValues/volFieldValue/volFieldValue.C at line 160
    Requested field k not found in database and not processed
--> FOAM Warning : 
    From Foam::label Foam::functionObjects::fieldValues::volFieldValue::writeAll(const Foam::scalarField&, const Foam::scalarField&)
    in file fieldValues/volFieldValue/volFieldValue.C at line 160
    Requested field omega not found in database and not processed
    min(region0) of nut = 1.0937079589e-09
--> FOAM Warning : 
    From Foam::label Foam::functionObjects::fieldValues::volFieldValue::writeAll(const Foam::scalarField&, const Foam::scalarField&)
    in file fieldValues/volFieldValue/volFieldValue.C at line 160
    Requested field epsilon not found in database and not processed
    min(region0) of nuTilda = 4.44831775975e-06

volFieldValue mindomain_vector write:

volFieldValue maxdomain_scalar write:
    max(region0) of p = 0.349911625347
--> FOAM Warning : 
    From Foam::label Foam::functionObjects::fieldValues::volFieldValue::writeAll(const Foam::scalarField&, const Foam::scalarField&)
    in file fieldValues/volFieldValue/volFieldValue.C at line 160
    Requested field k not found in database and not processed
--> FOAM Warning : 
    From Foam::label Foam::functionObjects::fieldValues::volFieldValue::writeAll(const Foam::scalarField&, const Foam::scalarField&)
    in file fieldValues/volFieldValue/volFieldValue.C at line 160
    Requested field omega not found in database and not processed
    max(region0) of nut = 7.14220962213e-05
--> FOAM Warning : 
    From Foam::label Foam::functionObjects::fieldValues::volFieldValue::writeAll(const Foam::scalarField&, const Foam::scalarField&)
    in file fieldValues/volFieldValue/volFieldValue.C at line 160
    Requested field epsilon not found in database and not processed
    max(region0) of nuTilda = 9.83187615919e-05

volFieldValue maxdomain_vector write:

Time = 8

DILUPBiCGStab:  Solving for Ux, Initial residual = 0.0388968606025, Final residual = 7.66283630432e-09, No Iterations 7
DILUPBiCGStab:  Solving for Uy, Initial residual = 0.16811869778, Final residual = 6.21104330208e-09, No Iterations 8
DILUPBiCGStab:  Solving for Uz, Initial residual = 0.576941252956, Final residual = 6.95058195081e-09, No Iterations 8
DICPCG:  Solving for p, Initial residual = 0.0230698960783, Final residual = 0.000136720314551, No Iterations 100
DICPCG:  Solving for p, Initial residual = 0.000131929138613, Final residual = 5.59860152288e-07, No Iterations 3
time step continuity errors : sum local = 1.97512541139e-07, global = -6.41658185082e-09, cumulative = -4.46231275448e-08
DILUPBiCGStab:  Solving for nuTilda, Initial residual = 0.156367403996, Final residual = 5.69974145763e-09, No Iterations 7
ExecutionTime = 0.17 s  ClockTime = 0 s

volFieldValue minmaxdomain_scalar write:
--> FOAM Warning : 
    From Foam::label Foam::functionObjects::fieldValues::volFieldValue::writeAll(const Foam::scalarField&, const Foam::scalarField&)
    in file fieldValues/volFieldValue/volFieldValue.C at line 160
    Requested field k not found in database and not processed
--> FOAM Warning : 
    From Foam::label Foam::functionObjects::fieldValues::volFieldValue::writeAll(const Foam::scalarField&, const Foam::scalarField&)
    in file fieldValues/volFieldValue/volFieldValue.C at line 160
    Requested field omega not found in database and not processed
--> FOAM Warning : 
    From Foam::label Foam::functionObjects::fieldValues::volFieldValue::writeAll(const Foam::scalarField&, const Foam::scalarField&)
    in file fieldValues/volFieldValue/volFieldValue.C at line 160
    Requested field epsilon not found in database and not processed

volFieldValue minmaxdomain_vector write:

volFieldValue mindomain_scalar write:
    min(region0) of p = 0.00112790103511
--> FOAM Warning : 
    From Foam::label Foam::functionObjects::fieldValues::volFieldValue::writeAll(const Foam::scalarField&, const Foam::scalarField&)
    in file fieldValues/volFieldValue/volFieldValue.C at line 160
    Requested field k not found in database and not processed
--> FOAM Warning : 
    From Foam::label Foam::functionObjects::fieldValues::volFieldValue::writeAll(const Foam::scalarField&, const Foam::scalarField&)
    in file fieldValues/volFieldValue/volFieldValue.C at line 160
    Requested field omega not found in database and not processed
    min(region0) of nut = 9.71738309883e-08
--> FOAM Warning : 
    From Foam::label Foam::functionObjects::fieldValues::volFieldValue::writeAll(const Foam::scalarField&, const Foam::scalarField&)
    in file fieldValues/volFieldValue/volFieldValue.C at line 160
    Requested field epsilon not found in database and not processed
    min(region0) of nuTilda = 1.36805969297e-05

volFieldValue mindomain_vector write:

volFieldValue maxdomain_scalar write:
    max(region0) of p = 0.361555846072
--> FOAM Warning : 
    From Foam::label Foam::functionObjects::fieldValues::volFieldValue::writeAll(const Foam::scalarField&, const Foam::scalarField&)
    in file fieldValues/volFieldValue/volFieldValue.C at line 160
    Requested field k not found in database and not processed
--> FOAM Warning : 
    From Foam::label Foam::functionObjects::fieldValues::volFieldValue::writeAll(const Foam::scalarField&, const Foam::scalarField&)
    in file fieldValues/volFieldValue/volFieldValue.C at line 160
    Requested field omega not found in database and not processed
    max(region0) of nut = 8.67519933626e-05
--> FOAM Warning : 
    From Foam::label Foam::functionObjects::fieldValues::volFieldValue::writeAll(const Foam::scalarField&, const Foam::scalarField&)
    in file fieldValues/volFieldValue/volFieldValue.C at line 160
    Requested field epsilon not found in database and not processed
    max(region0) of nuTilda = 0.00011004887152

volFieldValue maxdomain_vector write:

Time = 9

DILUPBiCGStab:  Solving for Ux, Initial residual = 0.0423070614548, Final residual = 4.79473315373e-09, No Iterations 7
DILUPBiCGStab:  Solving for Uy, Initial residual = 0.144596075877, Final residual = 9.83677514309e-10, No Iterations 9
DILUPBiCGStab:  Solving for Uz, Initial residual = 0.577698904891, Final residual = 4.05300018161e-09, No Iterations 7
DICPCG:  Solving for p, Initial residual = 0.0224657334913, Final residual = 0.000119939819351, No Iterations 100
DICPCG:  Solving for p, Initial residual = 0.000108648469954, Final residual = 6.98732428612e-07, No Iterations 3
time step continuity errors : sum local = 2.54578086091e-07, global = -2.47860737262e-09, cumulative = -4.71017349174e-08
DILUPBiCGStab:  Solving for nuTilda, Initial residual = 0.150632489267, Final residual = 3.9690550508e-09, No Iterations 7
ExecutionTime = 0.19 s  ClockTime = 0 s

volFieldValue minmaxdomain_scalar write:
--> FOAM Warning : 
    From Foam::label Foam::functionObjects::fieldValues::volFieldValue::writeAll(const Foam::scalarField&, const Foam::scalarField&)
    in file fieldValues/volFieldValue/volFieldValue.C at line 160
    Requested field k not found in database and not processed
--> FOAM Warning : 
    From Foam::label Foam::functionObjects::fieldValues::volFieldValue::writeAll(const Foam::scalarField&, const Foam::scalarField&)
    in file fieldValues/volFieldValue/volFieldValue.C at line 160
    Requested field omega not found in database and not processed
--> FOAM Warning : 
    From Foam::label Foam::functionObjects::fieldValues::volFieldValue::writeAll(const Foam::scalarField&, const Foam::scalarField&)
    in file fieldValues/volFieldValue/volFieldValue.C at line 160
    Requested field epsilon not found in database and not processed

volFieldValue minmaxdomain_vector write:

volFieldValue mindomain_scalar write:
    min(region0) of p = 0.00124281765594
--> FOAM Warning : 
    From Foam::label Foam::functionObjects::fieldValues::volFieldValue::writeAll(const Foam::scalarField&, const Foam::scalarField&)
    in file fieldValues/volFieldValue/volFieldValue.C at line 160
    Requested field k not found in database and not processed
--> FOAM Warning : 
    From Foam::label Foam::functionObjects::fieldValues::volFieldValue::writeAll(const Foam::scalarField&, const Foam::scalarField&)
    in file fieldValues/volFieldValue/volFieldValue.C at line 160
    Requested field omega not found in database and not processed
    min(region0) of nut = 1.08353988337e-09
--> FOAM Warning : 
    From Foam::label Foam::functionObjects::fieldValues::volFieldValue::writeAll(const Foam::scalarField&, const Foam::scalarField&)
    in file fieldValues/volFieldValue/volFieldValue.C at line 160
    Requested field epsilon not found in database and not processed
    min(region0) of nuTilda = 4.4379407406e-06

volFieldValue mindomain_vector write:

volFieldValue maxdomain_scalar write:
    max(region0) of p = 0.391743917794
--> FOAM Warning : 
    From Foam::label Foam::functionObjects::fieldValues::volFieldValue::writeAll(const Foam::scalarField&, const Foam::scalarField&)
    in file fieldValues/volFieldValue/volFieldValue.C at line 160
    Requested field k not found in database and not processed
--> FOAM Warning : 
    From Foam::label Foam::functionObjects::fieldValues::volFieldValue::writeAll(const Foam::scalarField&, const Foam::scalarField&)
    in file fieldValues/volFieldValue/volFieldValue.C at line 160
    Requested field omega not found in database and not processed
    max(region0) of nut = 0.000102361386009
--> FOAM Warning : 
    From Foam::label Foam::functionObjects::fieldValues::volFieldValue::writeAll(const Foam::scalarField&, const Foam::scalarField&)
    in file fieldValues/volFieldValue/volFieldValue.C at line 160
    Requested field epsilon not found in database and not processed
    max(region0) of nuTilda = 0.000122359780658

volFieldValue maxdomain_vector write:

Time = 10

DILUPBiCGStab:  Solving for Ux, Initial residual = 0.0362921989544, Final residual = 6.15984449439e-09, No Iterations 7
DILUPBiCGStab:  Solving for Uy, Initial residual = 0.128531339691, Final residual = 4.45976606904e-09, No Iterations 8
DILUPBiCGStab:  Solving for Uz, Initial residual = 0.574200331837, Final residual = 5.15165478808e-09, No Iterations 7
DICPCG:  Solving for p, Initial residual = 0.0211366640246, Final residual = 0.000108839725574, No Iterations 100
DICPCG:  Solving for p, Initial residual = 0.000102821326186, Final residual = 4.2966943079e-07, No Iterations 3
time step continuity errors : sum local = 1.58554175391e-07, global = -4.75517480721e-09, cumulative = -5.18569097247e-08
DILUPBiCGStab:  Solving for nuTilda, Initial residual = 0.130185259184, Final residual = 3.61510239281e-09, No Iterations 7
ExecutionTime = 0.21 s  ClockTime = 0 s

volFieldValue minmaxdomain_scalar write:
--> FOAM Warning : 
    From Foam::label Foam::functionObjects::fieldValues::volFieldValue::writeAll(const Foam::scalarField&, const Foam::scalarField&)
    in file fieldValues/volFieldValue/volFieldValue.C at line 160
    Requested field k not found in database and not processed
--> FOAM Warning : 
    From Foam::label Foam::functionObjects::fieldValues::volFieldValue::writeAll(const Foam::scalarField&, const Foam::scalarField&)
    in file fieldValues/volFieldValue/volFieldValue.C at line 160
    Requested field omega not found in database and not processed
--> FOAM Warning : 
    From Foam::label Foam::functionObjects::fieldValues::volFieldValue::writeAll(const Foam::scalarField&, const Foam::scalarField&)
    in file fieldValues/volFieldValue/volFieldValue.C at line 160
    Requested field epsilon not found in database and not processed

volFieldValue minmaxdomain_vector write:

volFieldValue mindomain_scalar write:
    min(region0) of p = 0.00131012960494
--> FOAM Warning : 
    From Foam::label Foam::functionObjects::fieldValues::volFieldValue::writeAll(const Foam::scalarField&, const Foam::scalarField&)
    in file fieldValues/volFieldValue/volFieldValue.C at line 160
    Requested field k not found in database and not processed
--> FOAM Warning : 
    From Foam::label Foam::functionObjects::fieldValues::volFieldValue::writeAll(const Foam::scalarField&, const Foam::scalarField&)
    in file fieldValues/volFieldValue/volFieldValue.C at line 160
    Requested field omega not found in database and not processed
    min(region0) of nut = 9.74922674805e-08
--> FOAM Warning : 
    From Foam::label Foam::functionObjects::fieldValues::volFieldValue::writeAll(const Foam::scalarField&, const Foam::scalarField&)
    in file fieldValues/volFieldValue/volFieldValue.C at line 160
    Requested field epsilon not found in database and not processed
    min(region0) of nuTilda = 1.36918509879e-05

volFieldValue mindomain_vector write:

volFieldValue maxdomain_scalar write:
    max(region0) of p = 0.408930027676
--> FOAM Warning : 
    From Foam::label Foam::functionObjects::fieldValues::volFieldValue::writeAll(const Foam::scalarField&, const Foam::scalarField&)
    in file fieldValues/volFieldValue/volFieldValue.C at line 160
    Requested field k not found in database and not processed
--> FOAM Warning : 
    From Foam::label Foam::functionObjects::fieldValues::volFieldValue::writeAll(const Foam::scalarField&, const Foam::scalarField&)
    in file fieldValues/volFieldValue/volFieldValue.C at line 160
    Requested field omega not found in database and not processed
    max(region0) of nut = 0.000118275948948
--> FOAM Warning : 
    From Foam::label Foam::functionObjects::fieldValues::volFieldValue::writeAll(const Foam::scalarField&, const Foam::scalarField&)
    in file fieldValues/volFieldValue/volFieldValue.C at line 160
    Requested field epsilon not found in database and not processed
    max(region0) of nuTilda = 0.000135348862938

volFieldValue maxdomain_vector write:

Time = 11

DILUPBiCGStab:  Solving for Ux, Initial residual = 0.0395422839545, Final residual = 7.4986108583e-09, No Iterations 6
DILUPBiCGStab:  Solving for Uy, Initial residual = 0.109256441039, Final residual = 6.93823784566e-09, No Iterations 8
DILUPBiCGStab:  Solving for Uz, Initial residual = 0.574749216309, Final residual = 4.66317457804e-09, No Iterations 7
DICPCG:  Solving for p, Initial residual = 0.0192768261203, Final residual = 9.48965047088e-05, No Iterations 100
DICPCG:  Solving for p, Initial residual = 8.65734068672e-05, Final residual = 3.85053492594e-07, No Iterations 3
time step continuity errors : sum local = 1.44573622731e-07, global = -6.32571910869e-09, cumulative = -5.81826288333e-08
DILUPBiCGStab:  Solving for nuTilda, Initial residual = 0.128037720404, Final residual = 3.88427902594e-09, No Iterations 7
ExecutionTime = 0.23 s  ClockTime = 0 s

volFieldValue minmaxdomain_scalar write:
--> FOAM Warning : 
    From Foam::label Foam::functionObjects::fieldValues::volFieldValue::writeAll(const Foam::scalarField&, const Foam::scalarField&)
    in file fieldValues/volFieldValue/volFieldValue.C at line 160
    Requested field k not found in database and not processed
--> FOAM Warning : 
    From Foam::label Foam::functionObjects::fieldValues::volFieldValue::writeAll(const Foam::scalarField&, const Foam::scalarField&)
    in file fieldValues/volFieldValue/volFieldValue.C at line 160
    Requested field omega not found in database and not processed
--> FOAM Warning : 
    From Foam::label Foam::functionObjects::fieldValues::volFieldValue::writeAll(const Foam::scalarField&, const Foam::scalarField&)
    in file fieldValues/volFieldValue/volFieldValue.C at line 160
    Requested field epsilon not found in database and not processed

volFieldValue minmaxdomain_vector write:

volFieldValue mindomain_scalar write:
    min(region0) of p = 0.00144889329946
--> FOAM Warning : 
    From Foam::label Foam::functionObjects::fieldValues::volFieldValue::writeAll(const Foam::scalarField&, const Foam::scalarField&)
    in file fieldValues/volFieldValue/volFieldValue.C at line 160
    Requested field k not found in database and not processed
--> FOAM Warning : 
    From Foam::label Foam::functionObjects::fieldValues::volFieldValue::writeAll(const Foam::scalarField&, const Foam::scalarField&)
    in file fieldValues/volFieldValue/volFieldValue.C at line 160
    Requested field omega not found in database and not processed
    min(region0) of nut = 1.06499066096e-09
--> FOAM Warning : 
    From Foam::label Foam::functionObjects::fieldValues::volFieldValue::writeAll(const Foam::scalarField&, const Foam::scalarField&)
    in file fieldValues/volFieldValue/volFieldValue.C at line 160
    Requested field epsilon not found in database and not processed
    min(region0) of nuTilda = 4.4188207238e-06

volFieldValue mindomain_vector write:

volFieldValue maxdomain_scalar write:
    max(region0) of p = 0.440312900026
--> FOAM Warning : 
    From Foam::label Foam::functionObjects::fieldValues::volFieldValue::writeAll(const Foam::scalarField&, const Foam::scalarField&)
    in file fieldValues/volFieldValue/volFieldValue.C at line 160
    Requested field k not found in database and not processed
--> FOAM Warning : 
    From Foam::label Foam::functionObjects::fieldValues::volFieldValue::writeAll(const Foam::scalarField&, const Foam::scalarField&)
    in file fieldValues/volFieldValue/volFieldValue.C at line 160
    Requested field omega not found in database and not processed
    max(region0) of nut = 0.000134712846219
--> FOAM Warning : 
    From Foam::label Foam::functionObjects::fieldValues::volFieldValue::writeAll(const Foam::scalarField&, const Foam::scalarField&)
    in file fieldValues/volFieldValue/volFieldValue.C at line 160
    Requested field epsilon not found in database and not processed
    max(region0) of nuTilda = 0.000149223122666

volFieldValue maxdomain_vector write:

Time = 12

DILUPBiCGStab:  Solving for Ux, Initial residual = 0.0328518633485, Final residual = 4.5369402281e-09, No Iterations 7
DILUPBiCGStab:  Solving for Uy, Initial residual = 0.0975451146684, Final residual = 9.59985547112e-09, No Iterations 7
DILUPBiCGStab:  Solving for Uz, Initial residual = 0.591063081821, Final residual = 3.05621663872e-09, No Iterations 7
DICPCG:  Solving for p, Initial residual = 0.0186660395948, Final residual = 8.87305537726e-05, No Iterations 100
DICPCG:  Solving for p, Initial residual = 8.35489968211e-05, Final residual = 3.77857461186e-07, No Iterations 3
time step continuity errors : sum local = 1.44360771528e-07, global = -4.23809651305e-09, cumulative = -6.24207253464e-08
DILUPBiCGStab:  Solving for nuTilda, Initial residual = 0.111501197535, Final residual = 6.01244933317e-09, No Iterations 7
ExecutionTime = 0.24 s  ClockTime = 0 s

volFieldValue minmaxdomain_scalar write:
--> FOAM Warning : 
    From Foam::label Foam::functionObjects::fieldValues::volFieldValue::writeAll(const Foam::scalarField&, const Foam::scalarField&)
    in file fieldValues/volFieldValue/volFieldValue.C at line 160
    Requested field k not found in database and not processed
--> FOAM Warning : 
    From Foam::label Foam::functionObjects::fieldValues::volFieldValue::writeAll(const Foam::scalarField&, const Foam::scalarField&)
    in file fieldValues/volFieldValue/volFieldValue.C at line 160
    Requested field omega not found in database and not processed
--> FOAM Warning : 
    From Foam::label Foam::functionObjects::fieldValues::volFieldValue::writeAll(const Foam::scalarField&, const Foam::scalarField&)
    in file fieldValues/volFieldValue/volFieldValue.C at line 160
    Requested field epsilon not found in database and not processed

volFieldValue minmaxdomain_vector write:

volFieldValue mindomain_scalar write:
    min(region0) of p = 0.00155344477243
--> FOAM Warning : 
    From Foam::label Foam::functionObjects::fieldValues::volFieldValue::writeAll(const Foam::scalarField&, const Foam::scalarField&)
    in file fieldValues/volFieldValue/volFieldValue.C at line 160
    Requested field k not found in database and not processed
--> FOAM Warning : 
    From Foam::label Foam::functionObjects::fieldValues::volFieldValue::writeAll(const Foam::scalarField&, const Foam::scalarField&)
    in file fieldValues/volFieldValue/volFieldValue.C at line 160
    Requested field omega not found in database and not processed
    min(region0) of nut = 9.73898165259e-08
--> FOAM Warning : 
    From Foam::label Foam::functionObjects::fieldValues::volFieldValue::writeAll(const Foam::scalarField&, const Foam::scalarField&)
    in file fieldValues/volFieldValue/volFieldValue.C at line 160
    Requested field epsilon not found in database and not processed
    min(region0) of nuTilda = 1.36882331967e-05

volFieldValue mindomain_vector write:

volFieldValue maxdomain_scalar write:
    max(region0) of p = 0.460304181057
--> FOAM Warning : 
    From Foam::label Foam::functionObjects::fieldValues::volFieldValue::writeAll(const Foam::scalarField&, const Foam::scalarField&)
    in file fieldValues/volFieldValue/volFieldValue.C at line 160
    Requested field k not found in database and not processed
--> FOAM Warning : 
    From Foam::label Foam::functionObjects::fieldValues::volFieldValue::writeAll(const Foam::scalarField&, const Foam::scalarField&)
    in file fieldValues/volFieldValue/volFieldValue.C at line 160
    Requested field omega not found in database and not processed
    max(region0) of nut = 0.000151677295146
--> FOAM Warning : 
    From Foam::label Foam::functionObjects::fieldValues::volFieldValue::writeAll(const Foam::scalarField&, const Foam::scalarField&)
    in file fieldValues/volFieldValue/volFieldValue.C at line 160
    Requested field epsilon not found in database and not processed
    max(region0) of nuTilda = 0.000163987456186

volFieldValue maxdomain_vector write:

Time = 13

DILUPBiCGStab:  Solving for Ux, Initial residual = 0.0365335729113, Final residual = 3.98272237495e-09, No Iterations 7
DILUPBiCGStab:  Solving for Uy, Initial residual = 0.0835768911201, Final residual = 5.92976823092e-09, No Iterations 8
DILUPBiCGStab:  Solving for Uz, Initial residual = 0.577749276782, Final residual = 7.7717969195e-09, No Iterations 7
DICPCG:  Solving for p, Initial residual = 0.0169236246854, Final residual = 7.82975524295e-05, No Iterations 100
DICPCG:  Solving for p, Initial residual = 7.24013444292e-05, Final residual = 3.5067940257e-07, No Iterations 3
time step continuity errors : sum local = 1.33959772322e-07, global = -3.51895076328e-09, cumulative = -6.59396761097e-08
DILUPBiCGStab:  Solving for nuTilda, Initial residual = 0.10911639268, Final residual = 3.6913538253e-09, No Iterations 6
ExecutionTime = 0.26 s  ClockTime = 0 s

volFieldValue minmaxdomain_scalar write:
--> FOAM Warning : 
    From Foam::label Foam::functionObjects::fieldValues::volFieldValue::writeAll(const Foam::scalarField&, const Foam::scalarField&)
    in file fieldValues/volFieldValue/volFieldValue.C at line 160
    Requested field k not found in database and not processed
--> FOAM Warning : 
    From Foam::label Foam::functionObjects::fieldValues::volFieldValue::writeAll(const Foam::scalarField&, const Foam::scalarField&)
    in file fieldValues/volFieldValue/volFieldValue.C at line 160
    Requested field omega not found in database and not processed
--> FOAM Warning : 
    From Foam::label Foam::functionObjects::fieldValues::volFieldValue::writeAll(const Foam::scalarField&, const Foam::scalarField&)
    in file fieldValues/volFieldValue/volFieldValue.C at line 160
    Requested field epsilon not found in database and not processed

volFieldValue minmaxdomain_vector write:

volFieldValue mindomain_scalar write:
    min(region0) of p = 0.00170627427548
--> FOAM Warning : 
    From Foam::label Foam::functionObjects::fieldValues::volFieldValue::writeAll(const Foam::scalarField&, const Foam::scalarField&)
    in file fieldValues/volFieldValue/volFieldValue.C at line 160
    Requested field k not found in database and not processed
--> FOAM Warning : 
    From Foam::label Foam::functionObjects::fieldValues::volFieldValue::writeAll(const Foam::scalarField&, const Foam::scalarField&)
    in file fieldValues/volFieldValue/volFieldValue.C at line 160
    Requested field omega not found in database and not processed
    min(region0) of nut = 1.05632876858e-09
--> FOAM Warning : 
    From Foam::label Foam::functionObjects::fieldValues::volFieldValue::writeAll(const Foam::scalarField&, const Foam::scalarField&)
    in file fieldValues/volFieldValue/volFieldValue.C at line 160
    Requested field epsilon not found in database and not processed
    min(region0) of nuTilda = 4.40980666383e-06

volFieldValue mindomain_vector write:

volFieldValue maxdomain_scalar write:
    max(region0) of p = 0.490817013602
--> FOAM Warning : 
    From Foam::label Foam::functionObjects::fieldValues::volFieldValue::writeAll(const Foam::scalarField&, const Foam::scalarField&)
    in file fieldValues/volFieldValue/volFieldValue.C at line 160
    Requested field k not found in database and not processed
--> FOAM Warning : 
    From Foam::label Foam::functionObjects::fieldValues::volFieldValue::writeAll(const Foam::scalarField&, const Foam::scalarField&)
    in file fieldValues/volFieldValue/volFieldValue.C at line 160
    Requested field omega not found in database and not processed
    max(region0) of nut = 0.000169361387737
--> FOAM Warning : 
    From Foam::label Foam::functionObjects::fieldValues::volFieldValue::writeAll(const Foam::scalarField&, const Foam::scalarField&)
    in file fieldValues/volFieldValue/volFieldValue.C at line 160
    Requested field epsilon not found in database and not processed
    max(region0) of nuTilda = 0.0001797913568

volFieldValue maxdomain_vector write:

Time = 14

DILUPBiCGStab:  Solving for Ux, Initial residual = 0.0293366260947, Final residual = 3.68256057065e-09, No Iterations 7
DILUPBiCGStab:  Solving for Uy, Initial residual = 0.0780142210352, Final residual = 4.07183857684e-09, No Iterations 8
DILUPBiCGStab:  Solving for Uz, Initial residual = 0.576330214813, Final residual = 2.14076099839e-09, No Iterations 8
DICPCG:  Solving for p, Initial residual = 0.0169671519521, Final residual = 7.80090782926e-05, No Iterations 100
DICPCG:  Solving for p, Initial residual = 7.37920348634e-05, Final residual = 4.25615064146e-07, No Iterations 3
time step continuity errors : sum local = 1.65273376496e-07, global = -2.46106302329e-09, cumulative = -6.8400739133e-08
DILUPBiCGStab:  Solving for nuTilda, Initial residual = 0.0958388579037, Final residual = 5.48432690387e-09, No Iterations 7
ExecutionTime = 0.29 s  ClockTime = 0 s

volFieldValue minmaxdomain_scalar write:
--> FOAM Warning : 
    From Foam::label Foam::functionObjects::fieldValues::volFieldValue::writeAll(const Foam::scalarField&, const Foam::scalarField&)
    in file fieldValues/volFieldValue/volFieldValue.C at line 160
    Requested field k not found in database and not processed
--> FOAM Warning : 
    From Foam::label Foam::functionObjects::fieldValues::volFieldValue::writeAll(const Foam::scalarField&, const Foam::scalarField&)
    in file fieldValues/volFieldValue/volFieldValue.C at line 160
    Requested field omega not found in database and not processed
--> FOAM Warning : 
    From Foam::label Foam::functionObjects::fieldValues::volFieldValue::writeAll(const Foam::scalarField&, const Foam::scalarField&)
    in file fieldValues/volFieldValue/volFieldValue.C at line 160
    Requested field epsilon not found in database and not processed

volFieldValue minmaxdomain_vector write:

volFieldValue mindomain_scalar write:
    min(region0) of p = 0.00183617332497
--> FOAM Warning : 
    From Foam::label Foam::functionObjects::fieldValues::volFieldValue::writeAll(const Foam::scalarField&, const Foam::scalarField&)
    in file fieldValues/volFieldValue/volFieldValue.C at line 160
    Requested field k not found in database and not processed
--> FOAM Warning : 
    From Foam::label Foam::functionObjects::fieldValues::volFieldValue::writeAll(const Foam::scalarField&, const Foam::scalarField&)
    in file fieldValues/volFieldValue/volFieldValue.C at line 160
    Requested field omega not found in database and not processed
    min(region0) of nut = 9.71607069396e-08
--> FOAM Warning : 
    From Foam::label Foam::functionObjects::fieldValues::volFieldValue::writeAll(const Foam::scalarField&, const Foam::scalarField&)
    in file fieldValues/volFieldValue/volFieldValue.C at line 160
    Requested field epsilon not found in database and not processed
    min(region0) of nuTilda = 1.36801325158e-05

volFieldValue mindomain_vector write:

volFieldValue maxdomain_scalar write:
    max(region0) of p = 0.511373610439
--> FOAM Warning : 
    From Foam::label Foam::functionObjects::fieldValues::volFieldValue::writeAll(const Foam::scalarField&, const Foam::scalarField&)
    in file fieldValues/volFieldValue/volFieldValue.C at line 160
    Requested field k not found in database and not processed
--> FOAM Warning : 
    From Foam::label Foam::functionObjects::fieldValues::volFieldValue::writeAll(const Foam::scalarField&, const Foam::scalarField&)
    in file fieldValues/volFieldValue/volFieldValue.C at line 160
    Requested field omega not found in database and not processed
    max(region0) of nut = 0.000187832242933
--> FOAM Warning : 
    From Foam::label Foam::functionObjects::fieldValues::volFieldValue::writeAll(const Foam::scalarField&, const Foam::scalarField&)
    in file fieldValues/volFieldValue/volFieldValue.C at line 160
    Requested field epsilon not found in database and not processed
    max(region0) of nuTilda = 0.000196669798764

volFieldValue maxdomain_vector write:

Time = 15

DILUPBiCGStab:  Solving for Ux, Initial residual = 0.0339692057981, Final residual = 5.98470723524e-09, No Iterations 6
DILUPBiCGStab:  Solving for Uy, Initial residual = 0.0684659727051, Final residual = 9.70991278289e-09, No Iterations 7
DILUPBiCGStab:  Solving for Uz, Initial residual = 0.585926727032, Final residual = 2.10124828571e-09, No Iterations 8
DICPCG:  Solving for p, Initial residual = 0.0155993377977, Final residual = 7.08879859951e-05, No Iterations 100
DICPCG:  Solving for p, Initial residual = 6.64793993328e-05, Final residual = 4.25435766929e-07, No Iterations 3
time step continuity errors : sum local = 1.62674899583e-07, global = 4.8172445498e-10, cumulative = -6.7919014678e-08
DILUPBiCGStab:  Solving for nuTilda, Initial residual = 0.0936684674316, Final residual = 7.98163486712e-09, No Iterations 6
ExecutionTime = 0.3 s  ClockTime = 0 s

volFieldValue minmaxdomain_scalar write:
--> FOAM Warning : 
    From Foam::label Foam::functionObjects::fieldValues::volFieldValue::writeAll(const Foam::scalarField&, const Foam::scalarField&)
    in file fieldValues/volFieldValue/volFieldValue.C at line 160
    Requested field k not found in database and not processed
--> FOAM Warning : 
    From Foam::label Foam::functionObjects::fieldValues::volFieldValue::writeAll(const Foam::scalarField&, const Foam::scalarField&)
    in file fieldValues/volFieldValue/volFieldValue.C at line 160
    Requested field omega not found in database and not processed
--> FOAM Warning : 
    From Foam::label Foam::functionObjects::fieldValues::volFieldValue::writeAll(const Foam::scalarField&, const Foam::scalarField&)
    in file fieldValues/volFieldValue/volFieldValue.C at line 160
    Requested field epsilon not found in database and not processed

volFieldValue minmaxdomain_vector write:

volFieldValue mindomain_scalar write:
    min(region0) of p = 0.00199492051301
--> FOAM Warning : 
    From Foam::label Foam::functionObjects::fieldValues::volFieldValue::writeAll(const Foam::scalarField&, const Foam::scalarField&)
    in file fieldValues/volFieldValue/volFieldValue.C at line 160
    Requested field k not found in database and not processed
--> FOAM Warning : 
    From Foam::label Foam::functionObjects::fieldValues::volFieldValue::writeAll(const Foam::scalarField&, const Foam::scalarField&)
    in file fieldValues/volFieldValue/volFieldValue.C at line 160
    Requested field omega not found in database and not processed
    min(region0) of nut = 1.05255407578e-09
--> FOAM Warning : 
    From Foam::label Foam::functionObjects::fieldValues::volFieldValue::writeAll(const Foam::scalarField&, const Foam::scalarField&)
    in file fieldValues/volFieldValue/volFieldValue.C at line 160
    Requested field epsilon not found in database and not processed
    min(region0) of nuTilda = 4.40586115749e-06

volFieldValue mindomain_vector write:

volFieldValue maxdomain_scalar write:
    max(region0) of p = 0.539423163277
--> FOAM Warning : 
    From Foam::label Foam::functionObjects::fieldValues::volFieldValue::writeAll(const Foam::scalarField&, const Foam::scalarField&)
    in file fieldValues/volFieldValue/volFieldValue.C at line 160
    Requested field k not found in database and not processed
--> FOAM Warning : 
    From Foam::label Foam::functionObjects::fieldValues::volFieldValue::writeAll(const Foam::scalarField&, const Foam::scalarField&)
    in file fieldValues/volFieldValue/volFieldValue.C at line 160
    Requested field omega not found in database and not processed
    max(region0) of nut = 0.000207205321754
--> FOAM Warning : 
    From Foam::label Foam::functionObjects::fieldValues::volFieldValue::writeAll(const Foam::scalarField&, const Foam::scalarField&)
    in file fieldValues/volFieldValue/volFieldValue.C at line 160
    Requested field epsilon not found in database and not processed
    max(region0) of nuTilda = 0.000214698857001

volFieldValue maxdomain_vector write:

Time = 16

DILUPBiCGStab:  Solving for Ux, Initial residual = 0.0264444067131, Final residual = 3.67412116522e-09, No Iterations 7
DILUPBiCGStab:  Solving for Uy, Initial residual = 0.0671967866463, Final residual = 5.13218768403e-09, No Iterations 8
DILUPBiCGStab:  Solving for Uz, Initial residual = 0.575149776547, Final residual = 4.85014593476e-09, No Iterations 8
DICPCG:  Solving for p, Initial residual = 0.0159435809299, Final residual = 7.29671148311e-05, No Iterations 100
DICPCG:  Solving for p, Initial residual = 6.95706969025e-05, Final residual = 4.35360662889e-07, No Iterations 3
time step continuity errors : sum local = 1.68915738426e-07, global = -2.6037584046e-09, cumulative = -7.05227730826e-08
DILUPBiCGStab:  Solving for nuTilda, Initial residual = 0.0827057500843, Final residual = 7.31749537733e-09, No Iterations 6
ExecutionTime = 0.32 s  ClockTime = 0 s

volFieldValue minmaxdomain_scalar write:
--> FOAM Warning : 
    From Foam::label Foam::functionObjects::fieldValues::volFieldValue::writeAll(const Foam::scalarField&, const Foam::scalarField&)
    in file fieldValues/volFieldValue/volFieldValue.C at line 160
    Requested field k not found in database and not processed
--> FOAM Warning : 
    From Foam::label Foam::functionObjects::fieldValues::volFieldValue::writeAll(const Foam::scalarField&, const Foam::scalarField&)
    in file fieldValues/volFieldValue/volFieldValue.C at line 160
    Requested field omega not found in database and not processed
--> FOAM Warning : 
    From Foam::label Foam::functionObjects::fieldValues::volFieldValue::writeAll(const Foam::scalarField&, const Foam::scalarField&)
    in file fieldValues/volFieldValue/volFieldValue.C at line 160
    Requested field epsilon not found in database and not processed

volFieldValue minmaxdomain_vector write:

volFieldValue mindomain_scalar write:
    min(region0) of p = 0.00213749447198
--> FOAM Warning : 
    From Foam::label Foam::functionObjects::fieldValues::volFieldValue::writeAll(const Foam::scalarField&, const Foam::scalarField&)
    in file fieldValues/volFieldValue/volFieldValue.C at line 160
    Requested field k not found in database and not processed
--> FOAM Warning : 
    From Foam::label Foam::functionObjects::fieldValues::volFieldValue::writeAll(const Foam::scalarField&, const Foam::scalarField&)
    in file fieldValues/volFieldValue/volFieldValue.C at line 160
    Requested field omega not found in database and not processed
    min(region0) of nut = 9.69270043295e-08
--> FOAM Warning : 
    From Foam::label Foam::functionObjects::fieldValues::volFieldValue::writeAll(const Foam::scalarField&, const Foam::scalarField&)
    in file fieldValues/volFieldValue/volFieldValue.C at line 160
    Requested field epsilon not found in database and not processed
    min(region0) of nuTilda = 1.36718547701e-05

volFieldValue mindomain_vector write:

volFieldValue maxdomain_scalar write:
    max(region0) of p = 0.558489237228
--> FOAM Warning : 
    From Foam::label Foam::functionObjects::fieldValues::volFieldValue::writeAll(const Foam::scalarField&, const Foam::scalarField&)
    in file fieldValues/volFieldValue/volFieldValue.C at line 160
    Requested field k not found in database and not processed
--> FOAM Warning : 
    From Foam::label Foam::functionObjects::fieldValues::volFieldValue::writeAll(const Foam::scalarField&, const Foam::scalarField&)
    in file fieldValues/volFieldValue/volFieldValue.C at line 160
    Requested field omega not found in database and not processed
    max(region0) of nut = 0.000227493698064
--> FOAM Warning : 
    From Foam::label Foam::functionObjects::fieldValues::volFieldValue::writeAll(const Foam::scalarField&, const Foam::scalarField&)
    in file fieldValues/volFieldValue/volFieldValue.C at line 160
    Requested field epsilon not found in database and not processed
    max(region0) of nuTilda = 0.00023385985565

volFieldValue maxdomain_vector write:

Time = 17

DILUPBiCGStab:  Solving for Ux, Initial residual = 0.0323865211059, Final residual = 6.62510039556e-09, No Iterations 6
DILUPBiCGStab:  Solving for Uy, Initial residual = 0.0600911179447, Final residual = 6.71616027355e-09, No Iterations 7
DILUPBiCGStab:  Solving for Uz, Initial residual = 0.580352694782, Final residual = 3.67933084172e-09, No Iterations 7
DICPCG:  Solving for p, Initial residual = 0.0145919036212, Final residual = 6.55522364917e-05, No Iterations 100
DICPCG:  Solving for p, Initial residual = 6.23150839729e-05, Final residual = 3.77280119107e-07, No Iterations 3
time step continuity errors : sum local = 1.42506717871e-07, global = -3.10502708864e-09, cumulative = -7.36278001712e-08
DILUPBiCGStab:  Solving for nuTilda, Initial residual = 0.0810803560917, Final residual = 5.59217654328e-09, No Iterations 6
ExecutionTime = 0.34 s  ClockTime = 0 s

volFieldValue minmaxdomain_scalar write:
--> FOAM Warning : 
    From Foam::label Foam::functionObjects::fieldValues::volFieldValue::writeAll(const Foam::scalarField&, const Foam::scalarField&)
    in file fieldValues/volFieldValue/volFieldValue.C at line 160
    Requested field k not found in database and not processed
--> FOAM Warning : 
    From Foam::label Foam::functionObjects::fieldValues::volFieldValue::writeAll(const Foam::scalarField&, const Foam::scalarField&)
    in file fieldValues/volFieldValue/volFieldValue.C at line 160
    Requested field omega not found in database and not processed
--> FOAM Warning : 
    From Foam::label Foam::functionObjects::fieldValues::volFieldValue::writeAll(const Foam::scalarField&, const Foam::scalarField&)
    in file fieldValues/volFieldValue/volFieldValue.C at line 160
    Requested field epsilon not found in database and not processed

volFieldValue minmaxdomain_vector write:

volFieldValue mindomain_scalar write:
    min(region0) of p = 0.00228775932468
--> FOAM Warning : 
    From Foam::label Foam::functionObjects::fieldValues::volFieldValue::writeAll(const Foam::scalarField&, const Foam::scalarField&)
    in file fieldValues/volFieldValue/volFieldValue.C at line 160
    Requested field k not found in database and not processed
--> FOAM Warning : 
    From Foam::label Foam::functionObjects::fieldValues::volFieldValue::writeAll(const Foam::scalarField&, const Foam::scalarField&)
    in file fieldValues/volFieldValue/volFieldValue.C at line 160
    Requested field omega not found in database and not processed
    min(region0) of nut = 1.0487644413e-09
--> FOAM Warning : 
    From Foam::label Foam::functionObjects::fieldValues::volFieldValue::writeAll(const Foam::scalarField&, const Foam::scalarField&)
    in file fieldValues/volFieldValue/volFieldValue.C at line 160
    Requested field epsilon not found in database and not processed
    min(region0) of nuTilda = 4.4018893462e-06

volFieldValue mindomain_vector write:

volFieldValue maxdomain_scalar write:
    max(region0) of p = 0.582508482907
--> FOAM Warning : 
    From Foam::label Foam::functionObjects::fieldValues::volFieldValue::writeAll(const Foam::scalarField&, const Foam::scalarField&)
    in file fieldValues/volFieldValue/volFieldValue.C at line 160
    Requested field k not found in database and not processed
--> FOAM Warning : 
    From Foam::label Foam::functionObjects::fieldValues::volFieldValue::writeAll(const Foam::scalarField&, const Foam::scalarField&)
    in file fieldValues/volFieldValue/volFieldValue.C at line 160
    Requested field omega not found in database and not processed
    max(region0) of nut = 0.000248680677581
--> FOAM Warning : 
    From Foam::label Foam::functionObjects::fieldValues::volFieldValue::writeAll(const Foam::scalarField&, const Foam::scalarField&)
    in file fieldValues/volFieldValue/volFieldValue.C at line 160
    Requested field epsilon not found in database and not processed
    max(region0) of nuTilda = 0.000254105375168

volFieldValue maxdomain_vector write:

Time = 18

DILUPBiCGStab:  Solving for Ux, Initial residual = 0.02446370102, Final residual = 6.97205221726e-09, No Iterations 6
DILUPBiCGStab:  Solving for Uy, Initial residual = 0.0636231718423, Final residual = 4.20933613673e-09, No Iterations 8
DILUPBiCGStab:  Solving for Uz, Initial residual = 0.552614231791, Final residual = 8.3426590542e-09, No Iterations 7
DICPCG:  Solving for p, Initial residual = 0.0147348510441, Final residual = 0.000136060340653, No Iterations 90
DICPCG:  Solving for p, Initial residual = 0.000131159565077, Final residual = 4.3694251221e-07, No Iterations 98
time step continuity errors : sum local = 1.67151134734e-07, global = 5.4793711814e-10, cumulative = -7.30798630531e-08
DILUPBiCGStab:  Solving for nuTilda, Initial residual = 0.0715471601323, Final residual = 5.80955623433e-09, No Iterations 6
ExecutionTime = 0.36 s  ClockTime = 0 s

volFieldValue minmaxdomain_scalar write:
--> FOAM Warning : 
    From Foam::label Foam::functionObjects::fieldValues::volFieldValue::writeAll(const Foam::scalarField&, const Foam::scalarField&)
    in file fieldValues/volFieldValue/volFieldValue.C at line 160
    Requested field k not found in database and not processed
--> FOAM Warning : 
    From Foam::label Foam::functionObjects::fieldValues::volFieldValue::writeAll(const Foam::scalarField&, const Foam::scalarField&)
    in file fieldValues/volFieldValue/volFieldValue.C at line 160
    Requested field omega not found in database and not processed
--> FOAM Warning : 
    From Foam::label Foam::functionObjects::fieldValues::volFieldValue::writeAll(const Foam::scalarField&, const Foam::scalarField&)
    in file fieldValues/volFieldValue/volFieldValue.C at line 160
    Requested field epsilon not found in database and not processed

volFieldValue minmaxdomain_vector write:

volFieldValue mindomain_scalar write:
    min(region0) of p = 0.00242053432066
--> FOAM Warning : 
    From Foam::label Foam::functionObjects::fieldValues::volFieldValue::writeAll(const Foam::scalarField&, const Foam::scalarField&)
    in file fieldValues/volFieldValue/volFieldValue.C at line 160
    Requested field k not found in database and not processed
--> FOAM Warning : 
    From Foam::label Foam::functionObjects::fieldValues::volFieldValue::writeAll(const Foam::scalarField&, const Foam::scalarField&)
    in file fieldValues/volFieldValue/volFieldValue.C at line 160
    Requested field omega not found in database and not processed
    min(region0) of nut = 9.67344160244e-08
--> FOAM Warning : 
    From Foam::label Foam::functionObjects::fieldValues::volFieldValue::writeAll(const Foam::scalarField&, const Foam::scalarField&)
    in file fieldValues/volFieldValue/volFieldValue.C at line 160
    Requested field epsilon not found in database and not processed
    min(region0) of nuTilda = 1.36650221153e-05

volFieldValue mindomain_vector write:

volFieldValue maxdomain_scalar write:
    max(region0) of p = 0.599129411945
--> FOAM Warning : 
    From Foam::label Foam::functionObjects::fieldValues::volFieldValue::writeAll(const Foam::scalarField&, const Foam::scalarField&)
    in file fieldValues/volFieldValue/volFieldValue.C at line 160
    Requested field k not found in database and not processed
--> FOAM Warning : 
    From Foam::label Foam::functionObjects::fieldValues::volFieldValue::writeAll(const Foam::scalarField&, const Foam::scalarField&)
    in file fieldValues/volFieldValue/volFieldValue.C at line 160
    Requested field omega not found in database and not processed
    max(region0) of nut = 0.000270627277898
--> FOAM Warning : 
    From Foam::label Foam::functionObjects::fieldValues::volFieldValue::writeAll(const Foam::scalarField&, const Foam::scalarField&)
    in file fieldValues/volFieldValue/volFieldValue.C at line 160
    Requested field epsilon not found in database and not processed
    max(region0) of nuTilda = 0.000275270989942

volFieldValue maxdomain_vector write:

Time = 19

DILUPBiCGStab:  Solving for Ux, Initial residual = 0.0315781233625, Final residual = 2.12377860466e-09, No Iterations 7
DILUPBiCGStab:  Solving for Uy, Initial residual = 0.0531556226844, Final residual = 5.1740916676e-09, No Iterations 7
DILUPBiCGStab:  Solving for Uz, Initial residual = 0.547994691153, Final residual = 2.84935627777e-09, No Iterations 8
DICPCG:  Solving for p, Initial residual = 0.0143330954587, Final residual = 5.51561185744e-05, No Iterations 100
DICPCG:  Solving for p, Initial residual = 5.3269047189e-05, Final residual = 4.23125044832e-07, No Iterations 3
time step continuity errors : sum local = 1.55913424068e-07, global = -2.60662905954e-09, cumulative = -7.56864921126e-08
DILUPBiCGStab:  Solving for nuTilda, Initial residual = 0.0707730423591, Final residual = 7.435474676e-09, No Iterations 6
ExecutionTime = 0.37 s  ClockTime = 0 s

volFieldValue minmaxdomain_scalar write:
--> FOAM Warning : 
    From Foam::label Foam::functionObjects::fieldValues::volFieldValue::writeAll(const Foam::scalarField&, const Foam::scalarField&)
    in file fieldValues/volFieldValue/volFieldValue.C at line 160
    Requested field k not found in database and not processed
--> FOAM Warning : 
    From Foam::label Foam::functionObjects::fieldValues::volFieldValue::writeAll(const Foam::scalarField&, const Foam::scalarField&)
    in file fieldValues/volFieldValue/volFieldValue.C at line 160
    Requested field omega not found in database and not processed
--> FOAM Warning : 
    From Foam::label Foam::functionObjects::fieldValues::volFieldValue::writeAll(const Foam::scalarField&, const Foam::scalarField&)
    in file fieldValues/volFieldValue/volFieldValue.C at line 160
    Requested field epsilon not found in database and not processed

volFieldValue minmaxdomain_vector write:

volFieldValue mindomain_scalar write:
    min(region0) of p = 0.00253584660057
--> FOAM Warning : 
    From Foam::label Foam::functionObjects::fieldValues::volFieldValue::writeAll(const Foam::scalarField&, const Foam::scalarField&)
    in file fieldValues/volFieldValue/volFieldValue.C at line 160
    Requested field k not found in database and not processed
--> FOAM Warning : 
    From Foam::label Foam::functionObjects::fieldValues::volFieldValue::writeAll(const Foam::scalarField&, const Foam::scalarField&)
    in file fieldValues/volFieldValue/volFieldValue.C at line 160
    Requested field omega not found in database and not processed
    min(region0) of nut = 1.03830486459e-09
--> FOAM Warning : 
    From Foam::label Foam::functionObjects::fieldValues::volFieldValue::writeAll(const Foam::scalarField&, const Foam::scalarField&)
    in file fieldValues/volFieldValue/volFieldValue.C at line 160
    Requested field epsilon not found in database and not processed
    min(region0) of nuTilda = 4.39087082774e-06

volFieldValue mindomain_vector write:

volFieldValue maxdomain_scalar write:
    max(region0) of p = 0.618033201976
--> FOAM Warning : 
    From Foam::label Foam::functionObjects::fieldValues::volFieldValue::writeAll(const Foam::scalarField&, const Foam::scalarField&)
    in file fieldValues/volFieldValue/volFieldValue.C at line 160
    Requested field k not found in database and not processed
--> FOAM Warning : 
    From Foam::label Foam::functionObjects::fieldValues::volFieldValue::writeAll(const Foam::scalarField&, const Foam::scalarField&)
    in file fieldValues/volFieldValue/volFieldValue.C at line 160
    Requested field omega not found in database and not processed
    max(region0) of nut = 0.00029331621566
--> FOAM Warning : 
    From Foam::label Foam::functionObjects::fieldValues::volFieldValue::writeAll(const Foam::scalarField&, const Foam::scalarField&)
    in file fieldValues/volFieldValue/volFieldValue.C at line 160
    Requested field epsilon not found in database and not processed
    max(region0) of nuTilda = 0.000297310866025

volFieldValue maxdomain_vector write:

Time = 20

DILUPBiCGStab:  Solving for Ux, Initial residual = 0.0227916785691, Final residual = 8.37918695587e-09, No Iterations 6
DILUPBiCGStab:  Solving for Uy, Initial residual = 0.0517474761616, Final residual = 7.78100777678e-10, No Iterations 9
DILUPBiCGStab:  Solving for Uz, Initial residual = 0.521492891357, Final residual = 8.73991685584e-09, No Iterations 7
DICPCG:  Solving for p, Initial residual = 0.0138554907643, Final residual = 9.72794086802e-05, No Iterations 99
DICPCG:  Solving for p, Initial residual = 9.4848033043e-05, Final residual = 6.17960781041e-07, No Iterations 8
time step continuity errors : sum local = 2.30909616886e-07, global = 9.83161112023e-10, cumulative = -7.47033310006e-08
DILUPBiCGStab:  Solving for nuTilda, Initial residual = 0.0614264701641, Final residual = 4.75380307611e-09, No Iterations 6
ExecutionTime = 0.39 s  ClockTime = 0 s

volFieldValue minmaxdomain_scalar write:
--> FOAM Warning : 
    From Foam::label Foam::functionObjects::fieldValues::volFieldValue::writeAll(const Foam::scalarField&, const Foam::scalarField&)
    in file fieldValues/volFieldValue/volFieldValue.C at line 160
    Requested field k not found in database and not processed
--> FOAM Warning : 
    From Foam::label Foam::functionObjects::fieldValues::volFieldValue::writeAll(const Foam::scalarField&, const Foam::scalarField&)
    in file fieldValues/volFieldValue/volFieldValue.C at line 160
    Requested field omega not found in database and not processed
--> FOAM Warning : 
    From Foam::label Foam::functionObjects::fieldValues::volFieldValue::writeAll(const Foam::scalarField&, const Foam::scalarField&)
    in file fieldValues/volFieldValue/volFieldValue.C at line 160
    Requested field epsilon not found in database and not processed

volFieldValue minmaxdomain_vector write:

volFieldValue mindomain_scalar write:
    min(region0) of p = 0.00263883896878
--> FOAM Warning : 
    From Foam::label Foam::functionObjects::fieldValues::volFieldValue::writeAll(const Foam::scalarField&, const Foam::scalarField&)
    in file fieldValues/volFieldValue/volFieldValue.C at line 160
    Requested field k not found in database and not processed
--> FOAM Warning : 
    From Foam::label Foam::functionObjects::fieldValues::volFieldValue::writeAll(const Foam::scalarField&, const Foam::scalarField&)
    in file fieldValues/volFieldValue/volFieldValue.C at line 160
    Requested field omega not found in database and not processed
    min(region0) of nut = 9.65834882224e-08
--> FOAM Warning : 
    From Foam::label Foam::functionObjects::fieldValues::volFieldValue::writeAll(const Foam::scalarField&, const Foam::scalarField&)
    in file fieldValues/volFieldValue/volFieldValue.C at line 160
[...]
DILUPBiCGStab:  Solving for Uy, Initial residual = 0.00911605101892, Final residual = 5.60968346433e-09, No Iterations 7
DILUPBiCGStab:  Solving for Uz, Initial residual = 0.539641876187, Final residual = 5.29064791747e-09, No Iterations 7
DICPCG:  Solving for p, Initial residual = 0.00519803309022, Final residual = 4.0278963062e-05, No Iterations 98
DICPCG:  Solving for p, Initial residual = 4.00702715908e-05, Final residual = 3.87872714074e-07, No Iterations 4
time step continuity errors : sum local = 1.2034370744e-07, global = 5.97013977495e-09, cumulative = 1.53560632349e-07
DILUPBiCGStab:  Solving for nuTilda, Initial residual = 0.0199671192273, Final residual = 4.00666229943e-09, No Iterations 5
ExecutionTime = 19.34 s  ClockTime = 18 s

volFieldValue minmaxdomain_scalar write:
--> FOAM Warning : 
    From Foam::label Foam::functionObjects::fieldValues::volFieldValue::writeAll(const Foam::scalarField&, const Foam::scalarField&)
    in file fieldValues/volFieldValue/volFieldValue.C at line 160
    Requested field k not found in database and not processed
--> FOAM Warning : 
    From Foam::label Foam::functionObjects::fieldValues::volFieldValue::writeAll(const Foam::scalarField&, const Foam::scalarField&)
    in file fieldValues/volFieldValue/volFieldValue.C at line 160
    Requested field omega not found in database and not processed
--> FOAM Warning : 
    From Foam::label Foam::functionObjects::fieldValues::volFieldValue::writeAll(const Foam::scalarField&, const Foam::scalarField&)
    in file fieldValues/volFieldValue/volFieldValue.C at line 160
    Requested field epsilon not found in database and not processed

volFieldValue minmaxdomain_vector write:

volFieldValue mindomain_scalar write:
    min(region0) of p = 0.00308388836902
--> FOAM Warning : 
    From Foam::label Foam::functionObjects::fieldValues::volFieldValue::writeAll(const Foam::scalarField&, const Foam::scalarField&)
    in file fieldValues/volFieldValue/volFieldValue.C at line 160
    Requested field k not found in database and not processed
--> FOAM Warning : 
    From Foam::label Foam::functionObjects::fieldValues::volFieldValue::writeAll(const Foam::scalarField&, const Foam::scalarField&)
    in file fieldValues/volFieldValue/volFieldValue.C at line 160
    Requested field omega not found in database and not processed
    min(region0) of nut = 1.37450132682e-08
--> FOAM Warning : 
    From Foam::label Foam::functionObjects::fieldValues::volFieldValue::writeAll(const Foam::scalarField&, const Foam::scalarField&)
    in file fieldValues/volFieldValue/volFieldValue.C at line 160
    Requested field epsilon not found in database and not processed
    min(region0) of nuTilda = 8.37834651331e-06

volFieldValue mindomain_vector write:

volFieldValue maxdomain_scalar write:
    max(region0) of p = 0.656797966278
--> FOAM Warning : 
    From Foam::label Foam::functionObjects::fieldValues::volFieldValue::writeAll(const Foam::scalarField&, const Foam::scalarField&)
    in file fieldValues/volFieldValue/volFieldValue.C at line 160
    Requested field k not found in database and not processed
--> FOAM Warning : 
    From Foam::label Foam::functionObjects::fieldValues::volFieldValue::writeAll(const Foam::scalarField&, const Foam::scalarField&)
    in file fieldValues/volFieldValue/volFieldValue.C at line 160
    Requested field omega not found in database and not processed
    max(region0) of nut = 0.000607436502124
--> FOAM Warning : 
    From Foam::label Foam::functionObjects::fieldValues::volFieldValue::writeAll(const Foam::scalarField&, const Foam::scalarField&)
    in file fieldValues/volFieldValue/volFieldValue.C at line 160
    Requested field epsilon not found in database and not processed
    max(region0) of nuTilda = 0.000608401895372

volFieldValue maxdomain_vector write:

Time = 997

DILUPBiCGStab:  Solving for Ux, Initial residual = 0.0331145160497, Final residual = 6.24747539695e-09, No Iterations 6
DILUPBiCGStab:  Solving for Uy, Initial residual = 0.0098758033876, Final residual = 4.49039879973e-09, No Iterations 7
DILUPBiCGStab:  Solving for Uz, Initial residual = 0.527150436392, Final residual = 4.17438024361e-09, No Iterations 7
DICPCG:  Solving for p, Initial residual = 0.00384712117172, Final residual = 3.81416666592e-05, No Iterations 98
DICPCG:  Solving for p, Initial residual = 3.83471196884e-05, Final residual = 3.39719261195e-07, No Iterations 4
time step continuity errors : sum local = 1.01506067513e-07, global = -5.27253855671e-09, cumulative = 1.48288093793e-07
DILUPBiCGStab:  Solving for nuTilda, Initial residual = 0.0363135488023, Final residual = 9.06964689726e-09, No Iterations 4
ExecutionTime = 19.35 s  ClockTime = 18 s

volFieldValue minmaxdomain_scalar write:
--> FOAM Warning : 
    From Foam::label Foam::functionObjects::fieldValues::volFieldValue::writeAll(const Foam::scalarField&, const Foam::scalarField&)
    in file fieldValues/volFieldValue/volFieldValue.C at line 160
    Requested field k not found in database and not processed
--> FOAM Warning : 
    From Foam::label Foam::functionObjects::fieldValues::volFieldValue::writeAll(const Foam::scalarField&, const Foam::scalarField&)
    in file fieldValues/volFieldValue/volFieldValue.C at line 160
    Requested field omega not found in database and not processed
--> FOAM Warning : 
    From Foam::label Foam::functionObjects::fieldValues::volFieldValue::writeAll(const Foam::scalarField&, const Foam::scalarField&)
    in file fieldValues/volFieldValue/volFieldValue.C at line 160
    Requested field epsilon not found in database and not processed

volFieldValue minmaxdomain_vector write:

volFieldValue mindomain_scalar write:
    min(region0) of p = 0.00304623117924
--> FOAM Warning : 
    From Foam::label Foam::functionObjects::fieldValues::volFieldValue::writeAll(const Foam::scalarField&, const Foam::scalarField&)
    in file fieldValues/volFieldValue/volFieldValue.C at line 160
    Requested field k not found in database and not processed
--> FOAM Warning : 
    From Foam::label Foam::functionObjects::fieldValues::volFieldValue::writeAll(const Foam::scalarField&, const Foam::scalarField&)
    in file fieldValues/volFieldValue/volFieldValue.C at line 160
    Requested field omega not found in database and not processed
    min(region0) of nut = 1.03775381925e-09
--> FOAM Warning : 
    From Foam::label Foam::functionObjects::fieldValues::volFieldValue::writeAll(const Foam::scalarField&, const Foam::scalarField&)
    in file fieldValues/volFieldValue/volFieldValue.C at line 160
    Requested field epsilon not found in database and not processed
    min(region0) of nuTilda = 4.39028803172e-06

volFieldValue mindomain_vector write:

volFieldValue maxdomain_scalar write:
    max(region0) of p = 0.654992274342
--> FOAM Warning : 
    From Foam::label Foam::functionObjects::fieldValues::volFieldValue::writeAll(const Foam::scalarField&, const Foam::scalarField&)
    in file fieldValues/volFieldValue/volFieldValue.C at line 160
    Requested field k not found in database and not processed
--> FOAM Warning : 
    From Foam::label Foam::functionObjects::fieldValues::volFieldValue::writeAll(const Foam::scalarField&, const Foam::scalarField&)
    in file fieldValues/volFieldValue/volFieldValue.C at line 160
    Requested field omega not found in database and not processed
    max(region0) of nut = 0.000607478257746
--> FOAM Warning : 
    From Foam::label Foam::functionObjects::fieldValues::volFieldValue::writeAll(const Foam::scalarField&, const Foam::scalarField&)
    in file fieldValues/volFieldValue/volFieldValue.C at line 160
    Requested field epsilon not found in database and not processed
    max(region0) of nuTilda = 0.000608443519228

volFieldValue maxdomain_vector write:

Time = 998

DILUPBiCGStab:  Solving for Ux, Initial residual = 0.0225585496542, Final residual = 7.81645773389e-09, No Iterations 6
DILUPBiCGStab:  Solving for Uy, Initial residual = 0.00911604726423, Final residual = 5.60946420759e-09, No Iterations 7
DILUPBiCGStab:  Solving for Uz, Initial residual = 0.516644754185, Final residual = 3.97209031849e-09, No Iterations 7
DICPCG:  Solving for p, Initial residual = 0.00519803262856, Final residual = 4.02383136873e-05, No Iterations 98
DICPCG:  Solving for p, Initial residual = 4.00298322921e-05, Final residual = 3.89976690318e-07, No Iterations 4
time step continuity errors : sum local = 1.20996603153e-07, global = 5.96723838605e-09, cumulative = 1.54255332179e-07
DILUPBiCGStab:  Solving for nuTilda, Initial residual = 0.0199671192689, Final residual = 4.0066624249e-09, No Iterations 5
ExecutionTime = 19.38 s  ClockTime = 18 s

volFieldValue minmaxdomain_scalar write:
--> FOAM Warning : 
    From Foam::label Foam::functionObjects::fieldValues::volFieldValue::writeAll(const Foam::scalarField&, const Foam::scalarField&)
    in file fieldValues/volFieldValue/volFieldValue.C at line 160
    Requested field k not found in database and not processed
--> FOAM Warning : 
    From Foam::label Foam::functionObjects::fieldValues::volFieldValue::writeAll(const Foam::scalarField&, const Foam::scalarField&)
    in file fieldValues/volFieldValue/volFieldValue.C at line 160
    Requested field omega not found in database and not processed
--> FOAM Warning : 
    From Foam::label Foam::functionObjects::fieldValues::volFieldValue::writeAll(const Foam::scalarField&, const Foam::scalarField&)
    in file fieldValues/volFieldValue/volFieldValue.C at line 160
    Requested field epsilon not found in database and not processed

volFieldValue minmaxdomain_vector write:

volFieldValue mindomain_scalar write:
    min(region0) of p = 0.00308388843388
--> FOAM Warning : 
    From Foam::label Foam::functionObjects::fieldValues::volFieldValue::writeAll(const Foam::scalarField&, const Foam::scalarField&)
    in file fieldValues/volFieldValue/volFieldValue.C at line 160
    Requested field k not found in database and not processed
--> FOAM Warning : 
    From Foam::label Foam::functionObjects::fieldValues::volFieldValue::writeAll(const Foam::scalarField&, const Foam::scalarField&)
    in file fieldValues/volFieldValue/volFieldValue.C at line 160
    Requested field omega not found in database and not processed
    min(region0) of nut = 1.37442828728e-08
--> FOAM Warning : 
    From Foam::label Foam::functionObjects::fieldValues::volFieldValue::writeAll(const Foam::scalarField&, const Foam::scalarField&)
    in file fieldValues/volFieldValue/volFieldValue.C at line 160
    Requested field epsilon not found in database and not processed
    min(region0) of nuTilda = 8.37823506987e-06

volFieldValue mindomain_vector write:

volFieldValue maxdomain_scalar write:
    max(region0) of p = 0.656797966385
--> FOAM Warning : 
    From Foam::label Foam::functionObjects::fieldValues::volFieldValue::writeAll(const Foam::scalarField&, const Foam::scalarField&)
    in file fieldValues/volFieldValue/volFieldValue.C at line 160
    Requested field k not found in database and not processed
--> FOAM Warning : 
    From Foam::label Foam::functionObjects::fieldValues::volFieldValue::writeAll(const Foam::scalarField&, const Foam::scalarField&)
    in file fieldValues/volFieldValue/volFieldValue.C at line 160
    Requested field omega not found in database and not processed
    max(region0) of nut = 0.000607436502236
--> FOAM Warning : 
    From Foam::label Foam::functionObjects::fieldValues::volFieldValue::writeAll(const Foam::scalarField&, const Foam::scalarField&)
    in file fieldValues/volFieldValue/volFieldValue.C at line 160
    Requested field epsilon not found in database and not processed
    max(region0) of nuTilda = 0.000608401895483

volFieldValue maxdomain_vector write:

Time = 999

DILUPBiCGStab:  Solving for Ux, Initial residual = 0.0331145160465, Final residual = 6.24747507173e-09, No Iterations 6
DILUPBiCGStab:  Solving for Uy, Initial residual = 0.00987580028126, Final residual = 4.49037836963e-09, No Iterations 7
DILUPBiCGStab:  Solving for Uz, Initial residual = 0.514845500289, Final residual = 2.34492509056e-09, No Iterations 8
DICPCG:  Solving for p, Initial residual = 0.00384712094928, Final residual = 3.81238086622e-05, No Iterations 98
DICPCG:  Solving for p, Initial residual = 3.83291659953e-05, Final residual = 3.44576891965e-07, No Iterations 4
time step continuity errors : sum local = 1.02957491216e-07, global = -5.30780410131e-09, cumulative = 1.48947528078e-07
DILUPBiCGStab:  Solving for nuTilda, Initial residual = 0.0363135492016, Final residual = 9.06964867937e-09, No Iterations 4
ExecutionTime = 19.39 s  ClockTime = 18 s

volFieldValue minmaxdomain_scalar write:
--> FOAM Warning : 
    From Foam::label Foam::functionObjects::fieldValues::volFieldValue::writeAll(const Foam::scalarField&, const Foam::scalarField&)
    in file fieldValues/volFieldValue/volFieldValue.C at line 160
    Requested field k not found in database and not processed
--> FOAM Warning : 
    From Foam::label Foam::functionObjects::fieldValues::volFieldValue::writeAll(const Foam::scalarField&, const Foam::scalarField&)
    in file fieldValues/volFieldValue/volFieldValue.C at line 160
    Requested field omega not found in database and not processed
--> FOAM Warning : 
    From Foam::label Foam::functionObjects::fieldValues::volFieldValue::writeAll(const Foam::scalarField&, const Foam::scalarField&)
    in file fieldValues/volFieldValue/volFieldValue.C at line 160
    Requested field epsilon not found in database and not processed

volFieldValue minmaxdomain_vector write:

volFieldValue mindomain_scalar write:
    min(region0) of p = 0.00304623114187
--> FOAM Warning : 
    From Foam::label Foam::functionObjects::fieldValues::volFieldValue::writeAll(const Foam::scalarField&, const Foam::scalarField&)
    in file fieldValues/volFieldValue/volFieldValue.C at line 160
    Requested field k not found in database and not processed
--> FOAM Warning : 
    From Foam::label Foam::functionObjects::fieldValues::volFieldValue::writeAll(const Foam::scalarField&, const Foam::scalarField&)
    in file fieldValues/volFieldValue/volFieldValue.C at line 160
    Requested field omega not found in database and not processed
    min(region0) of nut = 1.03775381597e-09
--> FOAM Warning : 
    From Foam::label Foam::functionObjects::fieldValues::volFieldValue::writeAll(const Foam::scalarField&, const Foam::scalarField&)
    in file fieldValues/volFieldValue/volFieldValue.C at line 160
    Requested field epsilon not found in database and not processed
    min(region0) of nuTilda = 4.39028802826e-06

volFieldValue mindomain_vector write:

volFieldValue maxdomain_scalar write:
    max(region0) of p = 0.654992274059
--> FOAM Warning : 
    From Foam::label Foam::functionObjects::fieldValues::volFieldValue::writeAll(const Foam::scalarField&, const Foam::scalarField&)
    in file fieldValues/volFieldValue/volFieldValue.C at line 160
    Requested field k not found in database and not processed
--> FOAM Warning : 
    From Foam::label Foam::functionObjects::fieldValues::volFieldValue::writeAll(const Foam::scalarField&, const Foam::scalarField&)
    in file fieldValues/volFieldValue/volFieldValue.C at line 160
    Requested field omega not found in database and not processed
    max(region0) of nut = 0.000607478257756
--> FOAM Warning : 
    From Foam::label Foam::functionObjects::fieldValues::volFieldValue::writeAll(const Foam::scalarField&, const Foam::scalarField&)
    in file fieldValues/volFieldValue/volFieldValue.C at line 160
    Requested field epsilon not found in database and not processed
    max(region0) of nuTilda = 0.000608443519238

volFieldValue maxdomain_vector write:

Time = 1000

DILUPBiCGStab:  Solving for Ux, Initial residual = 0.0225585496898, Final residual = 7.81645962978e-09, No Iterations 6
DILUPBiCGStab:  Solving for Uy, Initial residual = 0.00911605148748, Final residual = 5.6095534719e-09, No Iterations 7
DILUPBiCGStab:  Solving for Uz, Initial residual = 0.525520402261, Final residual = 4.82252937697e-09, No Iterations 7
DICPCG:  Solving for p, Initial residual = 0.00519803322315, Final residual = 4.02576287985e-05, No Iterations 98
DICPCG:  Solving for p, Initial residual = 4.00490494065e-05, Final residual = 3.89381731066e-07, No Iterations 4
time step continuity errors : sum local = 1.20811828744e-07, global = 5.96363331519e-09, cumulative = 1.54911161393e-07
DILUPBiCGStab:  Solving for nuTilda, Initial residual = 0.0199671193175, Final residual = 4.00666257563e-09, No Iterations 5
ExecutionTime = 19.41 s  ClockTime = 18 s

volFieldValue minmaxdomain_scalar write:
--> FOAM Warning : 
    From Foam::label Foam::functionObjects::fieldValues::volFieldValue::writeAll(const Foam::scalarField&, const Foam::scalarField&)
    in file fieldValues/volFieldValue/volFieldValue.C at line 160
    Requested field k not found in database and not processed
--> FOAM Warning : 
    From Foam::label Foam::functionObjects::fieldValues::volFieldValue::writeAll(const Foam::scalarField&, const Foam::scalarField&)
    in file fieldValues/volFieldValue/volFieldValue.C at line 160
    Requested field omega not found in database and not processed
--> FOAM Warning : 
    From Foam::label Foam::functionObjects::fieldValues::volFieldValue::writeAll(const Foam::scalarField&, const Foam::scalarField&)
    in file fieldValues/volFieldValue/volFieldValue.C at line 160
    Requested field epsilon not found in database and not processed

volFieldValue minmaxdomain_vector write:

volFieldValue mindomain_scalar write:
    min(region0) of p = 0.00308388839045
--> FOAM Warning : 
    From Foam::label Foam::functionObjects::fieldValues::volFieldValue::writeAll(const Foam::scalarField&, const Foam::scalarField&)
    in file fieldValues/volFieldValue/volFieldValue.C at line 160
    Requested field k not found in database and not processed
--> FOAM Warning : 
    From Foam::label Foam::functionObjects::fieldValues::volFieldValue::writeAll(const Foam::scalarField&, const Foam::scalarField&)
    in file fieldValues/volFieldValue/volFieldValue.C at line 160
    Requested field omega not found in database and not processed
    min(region0) of nut = 1.37435712421e-08
--> FOAM Warning : 
    From Foam::label Foam::functionObjects::fieldValues::volFieldValue::writeAll(const Foam::scalarField&, const Foam::scalarField&)
    in file fieldValues/volFieldValue/volFieldValue.C at line 160
    Requested field epsilon not found in database and not processed
    min(region0) of nuTilda = 8.37812648527e-06

volFieldValue mindomain_vector write:

volFieldValue maxdomain_scalar write:
    max(region0) of p = 0.656797966113
--> FOAM Warning : 
    From Foam::label Foam::functionObjects::fieldValues::volFieldValue::writeAll(const Foam::scalarField&, const Foam::scalarField&)
    in file fieldValues/volFieldValue/volFieldValue.C at line 160
    Requested field k not found in database and not processed
--> FOAM Warning : 
    From Foam::label Foam::functionObjects::fieldValues::volFieldValue::writeAll(const Foam::scalarField&, const Foam::scalarField&)
    in file fieldValues/volFieldValue/volFieldValue.C at line 160
    Requested field omega not found in database and not processed
    max(region0) of nut = 0.000607436502279
--> FOAM Warning : 
    From Foam::label Foam::functionObjects::fieldValues::volFieldValue::writeAll(const Foam::scalarField&, const Foam::scalarField&)
    in file fieldValues/volFieldValue/volFieldValue.C at line 160
    Requested field epsilon not found in database and not processed
    max(region0) of nuTilda = 0.000608401895527

volFieldValue maxdomain_vector write:

yPlus yplus write:
    writing field yPlus
    patch top y+ : min = 2.234888339, max = 4.06697396587, average = 2.33719222859
wallShearStress wallShearStress1 write:
    writing field wallShearStress
    min/max(top) = (-0.00938420975668 -4.80572577246e-06 -1.653956033e-17), (-0.0028337858386 4.23288149155e-05 4.2834239864e-17)
End

