/*---------------------------------------------------------------------------*\
| =========                 |                                                 |
| \\      /  F ield         | OpenFOAM: The Open Source CFD Toolbox           |
|  \\    /   O peration     | Version:  2206                                  |
|   \\  /    A nd           | Website:  www.openfoam.com                      |
|    \\/     M anipulation  |                                                 |
\*---------------------------------------------------------------------------*/
Build  : _da9441b0-20260127 OPENFOAM=2206 patch=260127 version=2206
Arch   : "LSB;label=32;scalar=64"
Exec   : simpleFoam
Date   : Jun 12 2026
Time   : 10:16:24
Host   : NotebookdoDan
PID    : 63508
I/O    : uncollated
Case   : /home/danilom/Trabalho_Modelagem_Turbulencia/GT2/RANS/KEpsilon_lowRE_V1
nProcs : 1
trapFpe: Floating point exception trapping enabled (FOAM_SIGFPE).
fileModificationChecking : Monitoring run-time modified files using timeStampMaster (fileModificationSkew 5, maxFileModificationPolls 20)
allowSystemOperations : Allowing user-supplied system call operations

// * * * * * * * * * * * * * * * * * * * * * * * * * * * * * * * * * * * * * //
Create time

--> FOAM Warning : 
    From static Foam::IOstreamOption::compressionType Foam::IOstreamOption::compressionEnum(const Foam::word&, compressionType)
    in file db/IOstreams/IOstreams/IOstreamOption.C at line 115
    Unknown compression specifier 'uncompressed', using compression off
Create mesh for time = 0


SIMPLE: convergence criteria
    field p	 tolerance 1e-06
    field U	 tolerance 1e-06
    field "(k|omega|epsilon)"	 tolerance 1e-06

Reading field p

Reading field U

Reading/calculating face flux field phi

Selecting incompressible transport model Newtonian
Selecting turbulence model type RAS
Selecting RAS turbulence model LaunderSharmaKE
RAS
{
    RASModel        LaunderSharmaKE;
    turbulence      on;
    printCoeffs     on;
    Cmu             0.09;
    C1              1.44;
    C2              1.92;
    C3              0;
    sigmak          1;
    sigmaEps        1.3;
}

No MRF models present

No finite volume options present

Starting time loop

Time = 1

DILUPBiCGStab:  Solving for Ux, Initial residual = 1, Final residual = 5.9681881e-24, No Iterations 3
DILUPBiCGStab:  Solving for Uy, Initial residual = 1, Final residual = 6.6785312e-26, No Iterations 3
DICPCG:  Solving for p, Initial residual = 1, Final residual = 0.0098430364, No Iterations 91
DICPCG:  Solving for p, Initial residual = 1.8392995e-05, Final residual = 1.6357947e-07, No Iterations 22
DICPCG:  Solving for p, Initial residual = 1.6358207e-07, Final residual = 9.0590872e-09, No Iterations 29
time step continuity errors : sum local = 3.7552158e-12, global = -4.7134311e-13, cumulative = -4.7134311e-13
DILUPBiCGStab:  Solving for epsilon, Initial residual = 0.97480298, Final residual = 1.9892554e-17, No Iterations 3
DILUPBiCGStab:  Solving for k, Initial residual = 1, Final residual = 4.1814879e-15, No Iterations 3
ExecutionTime = 0.17 s  ClockTime = 0 s

volFieldValue minmaxdomain_scalar write:

volFieldValue minmaxdomain_vector write:

volFieldValue mindomain_scalar write:
    min(region0) of p = 2.7341925e-07
    min(region0) of k = 9.2903861e-05
    min(region0) of epsilon = 0.0055702455
    min(region0) of nut = 2.1154267e-11

volFieldValue mindomain_vector write:
    min(region0) of U = (0.48256899 -4.4054662e-11 -8.7490491e-16)

volFieldValue maxdomain_scalar write:
    max(region0) of p = 0.012397387
    max(region0) of k = 0.0056043472
    max(region0) of epsilon = 71.955711
    max(region0) of nut = 1.8350839e-07

volFieldValue maxdomain_vector write:
    max(region0) of U = (1.0000516 0.00015876254 1.7481077e-15)

Time = 2

DILUPBiCGStab:  Solving for Ux, Initial residual = 0.18899476, Final residual = 1.4890398e-13, No Iterations 3
DILUPBiCGStab:  Solving for Uy, Initial residual = 0.098887925, Final residual = 5.5178171e-09, No Iterations 3
DICPCG:  Solving for p, Initial residual = 0.0065172076, Final residual = 6.267102e-05, No Iterations 86
DICPCG:  Solving for p, Initial residual = 4.4560147e-05, Final residual = 3.9540506e-07, No Iterations 37
DICPCG:  Solving for p, Initial residual = 3.9541684e-07, Final residual = 9.2126244e-09, No Iterations 62
time step continuity errors : sum local = 3.7841634e-12, global = -3.0669599e-13, cumulative = -7.780391e-13
DILUPBiCGStab:  Solving for epsilon, Initial residual = 0.049468687, Final residual = 1.9323114e-18, No Iterations 3
DILUPBiCGStab:  Solving for k, Initial residual = 0.58755855, Final residual = 6.5044942e-16, No Iterations 3
ExecutionTime = 0.26 s  ClockTime = 0 s

volFieldValue minmaxdomain_scalar write:

volFieldValue minmaxdomain_vector write:

volFieldValue mindomain_scalar write:
    min(region0) of p = 3.3906255e-07
    min(region0) of k = 5.8368445e-05
    min(region0) of epsilon = 0.0031353799
    min(region0) of nut = 3.3393954e-11

volFieldValue mindomain_vector write:
    min(region0) of U = (0.28812697 -1.5279876e-06 -9.089158e-16)

volFieldValue maxdomain_scalar write:
    max(region0) of p = 0.015964279
    max(region0) of k = 0.022798833
    max(region0) of epsilon = 167.75525
    max(region0) of nut = 9.5700855e-09

volFieldValue maxdomain_vector write:
    max(region0) of U = (1.0001147 0.0003635611 1.7549017e-15)

Time = 3

DILUPBiCGStab:  Solving for Ux, Initial residual = 0.087064986, Final residual = 1.0026813e-13, No Iterations 3
DILUPBiCGStab:  Solving for Uy, Initial residual = 0.053811561, Final residual = 2.8423791e-09, No Iterations 3
DICPCG:  Solving for p, Initial residual = 0.0077104983, Final residual = 5.2116858e-05, No Iterations 86
DICPCG:  Solving for p, Initial residual = 7.3397066e-05, Final residual = 6.5896058e-07, No Iterations 38
DICPCG:  Solving for p, Initial residual = 6.58974e-07, Final residual = 9.0981738e-09, No Iterations 71
time step continuity errors : sum local = 2.4360495e-12, global = -4.823811e-14, cumulative = -8.2627721e-13
DILUPBiCGStab:  Solving for epsilon, Initial residual = 0.090772425, Final residual = 2.4419644e-19, No Iterations 3
DILUPBiCGStab:  Solving for k, Initial residual = 0.26988344, Final residual = 2.4166071e-16, No Iterations 3
ExecutionTime = 0.34 s  ClockTime = 0 s

volFieldValue minmaxdomain_scalar write:

volFieldValue minmaxdomain_vector write:

volFieldValue mindomain_scalar write:
    min(region0) of p = -9.0457442e-05
    min(region0) of k = 3.7232711e-05
    min(region0) of epsilon = 0.0017850118
    min(region0) of nut = 2.5010782e-11

volFieldValue mindomain_vector write:
    min(region0) of U = (0.20264017 -3.9191407e-08 -7.3862896e-16)

volFieldValue maxdomain_scalar write:
    max(region0) of p = 0.013022271
    max(region0) of k = 0.040037894
    max(region0) of epsilon = 1376.4407
    max(region0) of nut = 6.8965913e-09

volFieldValue maxdomain_vector write:
    max(region0) of U = (1.0001572 0.00052616248 3.987642e-16)

Time = 4

DILUPBiCGStab:  Solving for Ux, Initial residual = 0.05339594, Final residual = 8.5518582e-14, No Iterations 3
DILUPBiCGStab:  Solving for Uy, Initial residual = 0.030066164, Final residual = 1.9295106e-09, No Iterations 3
DICPCG:  Solving for p, Initial residual = 0.0094273359, Final residual = 9.2732797e-05, No Iterations 85
DICPCG:  Solving for p, Initial residual = 0.00016068049, Final residual = 1.5675927e-06, No Iterations 35
DICPCG:  Solving for p, Initial residual = 1.5677361e-06, Final residual = 1.5408305e-08, No Iterations 75
time step continuity errors : sum local = 2.6853762e-12, global = -2.480738e-14, cumulative = -8.5108459e-13
DILUPBiCGStab:  Solving for epsilon, Initial residual = 0.079470462, Final residual = 8.3231357e-20, No Iterations 3
DILUPBiCGStab:  Solving for k, Initial residual = 0.12482678, Final residual = 1.3669218e-16, No Iterations 3
ExecutionTime = 0.43 s  ClockTime = 1 s

volFieldValue minmaxdomain_scalar write:

volFieldValue minmaxdomain_vector write:

volFieldValue mindomain_scalar write:
    min(region0) of p = -0.0003618079
    min(region0) of k = 2.413551e-05
    min(region0) of epsilon = 0.0010289867
    min(region0) of nut = 1.5479779e-11

volFieldValue mindomain_vector write:
    min(region0) of U = (0.15911482 -5.9973128e-07 -5.3163967e-16)

volFieldValue maxdomain_scalar write:
    max(region0) of p = 0.009267685
    max(region0) of k = 0.050321666
    max(region0) of epsilon = 3203.2837
    max(region0) of nut = 7.1007703e-09

volFieldValue maxdomain_vector write:
    max(region0) of U = (1.0001989 0.00063854914 1.5245532e-18)

Time = 5

DILUPBiCGStab:  Solving for Ux, Initial residual = 0.038376289, Final residual = 6.8077256e-14, No Iterations 3
DILUPBiCGStab:  Solving for Uy, Initial residual = 0.017705042, Final residual = 1.9472564e-09, No Iterations 3
DICPCG:  Solving for p, Initial residual = 0.012330532, Final residual = 0.00011100999, No Iterations 81
DICPCG:  Solving for p, Initial residual = 0.00015190383, Final residual = 1.4606903e-06, No Iterations 42
DICPCG:  Solving for p, Initial residual = 1.4607607e-06, Final residual = 1.4212895e-08, No Iterations 69
time step continuity errors : sum local = 2.2202967e-12, global = 1.8498791e-14, cumulative = -8.325858e-13
DILUPBiCGStab:  Solving for epsilon, Initial residual = 0.063185666, Final residual = 4.583813e-20, No Iterations 3
DILUPBiCGStab:  Solving for k, Initial residual = 0.056997195, Final residual = 1.037288e-16, No Iterations 3
ExecutionTime = 0.51 s  ClockTime = 1 s

volFieldValue minmaxdomain_scalar write:

volFieldValue minmaxdomain_vector write:

volFieldValue mindomain_scalar write:
    min(region0) of p = -0.0005711171
    min(region0) of k = 1.5911824e-05
    min(region0) of epsilon = 0.00060135291
    min(region0) of nut = 1.0630572e-11

volFieldValue mindomain_vector write:
    min(region0) of U = (0.13357944 -2.3906076e-06 -3.6509822e-16)

volFieldValue maxdomain_scalar write:
    max(region0) of p = 0.0071102053
    max(region0) of k = 0.054314232
    max(region0) of epsilon = 4513.5793
    max(region0) of nut = 1.2515783e-08

volFieldValue maxdomain_vector write:
    max(region0) of U = (1.0002658 0.0007272242 1.4977214e-18)

Time = 6

DILUPBiCGStab:  Solving for Ux, Initial residual = 0.030190516, Final residual = 1.0705454e-13, No Iterations 3
DILUPBiCGStab:  Solving for Uy, Initial residual = 0.012338514, Final residual = 1.0303233e-09, No Iterations 3
DICPCG:  Solving for p, Initial residual = 0.013938941, Final residual = 0.00013668905, No Iterations 40
DICPCG:  Solving for p, Initial residual = 0.00013993426, Final residual = 1.1048335e-06, No Iterations 76
DICPCG:  Solving for p, Initial residual = 1.1103728e-06, Final residual = 9.5161352e-09, No Iterations 38
time step continuity errors : sum local = 1.6140014e-12, global = -1.6793421e-13, cumulative = -1.00052e-12
DILUPBiCGStab:  Solving for epsilon, Initial residual = 0.047449993, Final residual = 3.1688576e-20, No Iterations 3
DILUPBiCGStab:  Solving for k, Initial residual = 0.029155543, Final residual = 1.192509e-16, No Iterations 3
ExecutionTime = 0.57 s  ClockTime = 1 s

volFieldValue minmaxdomain_scalar write:

volFieldValue minmaxdomain_vector write:

volFieldValue mindomain_scalar write:
    min(region0) of p = -0.00072537998
    min(region0) of k = 1.0675927e-05
    min(region0) of epsilon = 0.00035674217
    min(region0) of nut = 8.2982444e-12

volFieldValue mindomain_vector write:
    min(region0) of U = (0.11677947 -3.0003794e-06 -2.4401535e-16)

volFieldValue maxdomain_scalar write:
    max(region0) of p = 0.006383773
    max(region0) of k = 0.054297563
    max(region0) of epsilon = 5061.2644
    max(region0) of nut = 2.2407788e-08

volFieldValue maxdomain_vector write:
    max(region0) of U = (1.0003455 0.00081292534 1.4645704e-18)

Time = 7

DILUPBiCGStab:  Solving for Ux, Initial residual = 0.025052684, Final residual = 5.38905e-13, No Iterations 3
DILUPBiCGStab:  Solving for Uy, Initial residual = 0.010138903, Final residual = 7.5905652e-10, No Iterations 3
DICPCG:  Solving for p, Initial residual = 0.013231537, Final residual = 0.000122361, No Iterations 75
DICPCG:  Solving for p, Initial residual = 0.00011652937, Final residual = 9.8949175e-07, No Iterations 75
DICPCG:  Solving for p, Initial residual = 9.8928176e-07, Final residual = 9.6254099e-09, No Iterations 73
time step continuity errors : sum local = 1.7385518e-12, global = -2.1452516e-13, cumulative = -1.2150452e-12
DILUPBiCGStab:  Solving for epsilon, Initial residual = 0.033888237, Final residual = 2.479479e-20, No Iterations 3
DILUPBiCGStab:  Solving for k, Initial residual = 0.042538821, Final residual = 1.2650182e-16, No Iterations 3
ExecutionTime = 0.67 s  ClockTime = 1 s

volFieldValue minmaxdomain_scalar write:

volFieldValue minmaxdomain_vector write:

volFieldValue mindomain_scalar write:
    min(region0) of p = -0.00085352132
    min(region0) of k = 7.293398e-06
    min(region0) of epsilon = 0.00021509625
    min(region0) of nut = 6.4761451e-12

volFieldValue mindomain_vector write:
    min(region0) of U = (0.10474387 -2.0700766e-06 -2.7418219e-18)

volFieldValue maxdomain_scalar write:
    max(region0) of p = 0.0062472589
    max(region0) of k = 0.052115057
    max(region0) of epsilon = 5058.9347
    max(region0) of nut = 3.5577151e-08

volFieldValue maxdomain_vector write:
    max(region0) of U = (1.0004256 0.00090157501 3.0588745e-16)

Time = 8

DILUPBiCGStab:  Solving for Ux, Initial residual = 0.021519635, Final residual = 2.5849578e-13, No Iterations 3
DILUPBiCGStab:  Solving for Uy, Initial residual = 0.0090483057, Final residual = 6.5459956e-10, No Iterations 3
DICPCG:  Solving for p, Initial residual = 0.012022658, Final residual = 0.00010755854, No Iterations 76
DICPCG:  Solving for p, Initial residual = 0.00010573121, Final residual = 1.0131506e-06, No Iterations 76
DICPCG:  Solving for p, Initial residual = 1.0124433e-06, Final residual = 1.0015029e-08, No Iterations 43
time step continuity errors : sum local = 1.8236957e-12, global = -2.0842663e-13, cumulative = -1.4234718e-12
DILUPBiCGStab:  Solving for epsilon, Initial residual = 0.022740381, Final residual = 2.0908872e-20, No Iterations 3
DILUPBiCGStab:  Solving for k, Initial residual = 0.04706563, Final residual = 1.250553e-16, No Iterations 3
ExecutionTime = 0.75 s  ClockTime = 1 s

volFieldValue minmaxdomain_scalar write:

volFieldValue minmaxdomain_vector write:

volFieldValue mindomain_scalar write:
    min(region0) of p = -0.00097183277
    min(region0) of k = 5.0748258e-06
    min(region0) of epsilon = 0.00013197055
    min(region0) of nut = 5.6125328e-12

volFieldValue mindomain_vector write:
    min(region0) of U = (0.095577929 -2.8292438e-06 -3.1166163e-18)

volFieldValue maxdomain_scalar write:
    max(region0) of p = 0.006255031
    max(region0) of k = 0.048934633
    max(region0) of epsilon = 4757.0026
    max(region0) of nut = 4.9217337e-08

volFieldValue maxdomain_vector write:
    max(region0) of U = (1.0005031 0.00099151122 2.0498529e-16)

Time = 9

DILUPBiCGStab:  Solving for Ux, Initial residual = 0.018921922, Final residual = 3.6043356e-13, No Iterations 3
DILUPBiCGStab:  Solving for Uy, Initial residual = 0.0081002275, Final residual = 5.8545644e-10, No Iterations 3
DICPCG:  Solving for p, Initial residual = 0.011268777, Final residual = 0.00010272153, No Iterations 47
DICPCG:  Solving for p, Initial residual = 0.00010387165, Final residual = 1.0215714e-06, No Iterations 78
DICPCG:  Solving for p, Initial residual = 1.0243878e-06, Final residual = 1.0047529e-08, No Iterations 30
time step continuity errors : sum local = 1.8027722e-12, global = 5.8715501e-14, cumulative = -1.3647563e-12
DILUPBiCGStab:  Solving for epsilon, Initial residual = 0.016824648, Final residual = 1.8516277e-20, No Iterations 3
DILUPBiCGStab:  Solving for k, Initial residual = 0.047030029, Final residual = 1.2562808e-16, No Iterations 3
ExecutionTime = 0.83 s  ClockTime = 1 s

volFieldValue minmaxdomain_scalar write:

volFieldValue minmaxdomain_vector write:

volFieldValue mindomain_scalar write:
    min(region0) of p = -0.0010841698
    min(region0) of k = 3.5967456e-06
    min(region0) of epsilon = 8.2477435e-05
    min(region0) of nut = 4.8647317e-12

volFieldValue mindomain_vector write:
    min(region0) of U = (0.088283852 -4.357665e-06 -3.2354368e-18)

volFieldValue maxdomain_scalar write:
    max(region0) of p = 0.0061449482
    max(region0) of k = 0.045421442
    max(region0) of epsilon = 4328.2573
    max(region0) of nut = 6.1250671e-08

volFieldValue maxdomain_vector write:
    max(region0) of U = (1.0005771 0.0010806416 1.9003833e-16)

Time = 10

DILUPBiCGStab:  Solving for Ux, Initial residual = 0.016914292, Final residual = 5.4109926e-14, No Iterations 3
DILUPBiCGStab:  Solving for Uy, Initial residual = 0.007254766, Final residual = 5.8696954e-10, No Iterations 3
DICPCG:  Solving for p, Initial residual = 0.011028931, Final residual = 0.00010343362, No Iterations 47
DICPCG:  Solving for p, Initial residual = 0.00010493916, Final residual = 1.0400113e-06, No Iterations 78
DICPCG:  Solving for p, Initial residual = 1.0438692e-06, Final residual = 8.4538279e-09, No Iterations 33
time step continuity errors : sum local = 1.5026324e-12, global = 1.5185934e-14, cumulative = -1.3495704e-12
DILUPBiCGStab:  Solving for epsilon, Initial residual = 0.019621034, Final residual = 1.6876683e-20, No Iterations 3
DILUPBiCGStab:  Solving for k, Initial residual = 0.044774015, Final residual = 1.3449022e-16, No Iterations 3
ExecutionTime = 0.9 s  ClockTime = 1 s

volFieldValue minmaxdomain_scalar write:

volFieldValue minmaxdomain_vector write:

volFieldValue mindomain_scalar write:
    min(region0) of p = -0.0011907832
    min(region0) of k = 2.5961255e-06
    min(region0) of epsilon = 5.2548921e-05
    min(region0) of nut = 4.2885883e-12

volFieldValue mindomain_vector write:
    min(region0) of U = (0.082289017 -5.9392856e-06 -2.7255309e-18)

volFieldValue maxdomain_scalar write:
    max(region0) of p = 0.0060040291
    max(region0) of k = 0.041930361
    max(region0) of epsilon = 3870.6147
    max(region0) of nut = 7.2966551e-08

volFieldValue maxdomain_vector write:
    max(region0) of U = (1.0006484 0.001168693 1.7699901e-16)

Time = 11

DILUPBiCGStab:  Solving for Ux, Initial residual = 0.015314408, Final residual = 3.576054e-14, No Iterations 3
DILUPBiCGStab:  Solving for Uy, Initial residual = 0.0064964543, Final residual = 5.9997974e-10, No Iterations 3
DICPCG:  Solving for p, Initial residual = 0.010843714, Final residual = 0.00010550708, No Iterations 46
DICPCG:  Solving for p, Initial residual = 0.00010639989, Final residual = 1.0437177e-06, No Iterations 75
DICPCG:  Solving for p, Initial residual = 1.0418764e-06, Final residual = 1.0149091e-08, No Iterations 43
time step continuity errors : sum local = 1.8104842e-12, global = -3.1849456e-13, cumulative = -1.6680649e-12
DILUPBiCGStab:  Solving for epsilon, Initial residual = 0.020329884, Final residual = 1.5665125e-20, No Iterations 3
DILUPBiCGStab:  Solving for k, Initial residual = 0.041561644, Final residual = 1.4358322e-16, No Iterations 3
ExecutionTime = 0.99 s  ClockTime = 1 s

volFieldValue minmaxdomain_scalar write:

volFieldValue minmaxdomain_vector write:

volFieldValue mindomain_scalar write:
    min(region0) of p = -0.0012935508
    min(region0) of k = 1.90767e-06
    min(region0) of epsilon = 3.4151272e-05
    min(region0) of nut = 3.9838463e-12

volFieldValue mindomain_vector write:
    min(region0) of U = (0.077240288 -6.9464116e-06 -2.7704816e-18)

volFieldValue maxdomain_scalar write:
    max(region0) of p = 0.0059055208
    max(region0) of k = 0.038628638
    max(region0) of epsilon = 3433.0606
    max(region0) of nut = 8.5054183e-08

volFieldValue maxdomain_vector write:
    max(region0) of U = (1.0007213 0.0012564854 1.6664082e-16)

Time = 12

DILUPBiCGStab:  Solving for Ux, Initial residual = 0.014000898, Final residual = 3.4990458e-14, No Iterations 3
DILUPBiCGStab:  Solving for Uy, Initial residual = 0.0058864963, Final residual = 5.4021581e-10, No Iterations 3
DICPCG:  Solving for p, Initial residual = 0.010668147, Final residual = 0.00010366684, No Iterations 63
DICPCG:  Solving for p, Initial residual = 0.00010356863, Final residual = 9.4788733e-07, No Iterations 75
DICPCG:  Solving for p, Initial residual = 9.4419409e-07, Final residual = 9.6540083e-09, No Iterations 36
time step continuity errors : sum local = 1.7423902e-12, global = -3.4167288e-14, cumulative = -1.7022322e-12
DILUPBiCGStab:  Solving for epsilon, Initial residual = 0.019707676, Final residual = 1.4999851e-20, No Iterations 3
DILUPBiCGStab:  Solving for k, Initial residual = 0.038028123, Final residual = 1.5002494e-16, No Iterations 3
ExecutionTime = 1.08 s  ClockTime = 1 s

volFieldValue minmaxdomain_scalar write:

volFieldValue minmaxdomain_vector write:

volFieldValue mindomain_scalar write:
    min(region0) of p = -0.0013959442
    min(region0) of k = 1.4262371e-06
    min(region0) of epsilon = 2.2645539e-05
    min(region0) of nut = 3.664058e-12

volFieldValue mindomain_vector write:
    min(region0) of U = (0.072906802 -7.0338102e-06 -2.8262033e-18)

volFieldValue maxdomain_scalar write:
    max(region0) of p = 0.0058612792
    max(region0) of k = 0.035587211
    max(region0) of epsilon = 3035.6567
    max(region0) of nut = 9.7735113e-08

volFieldValue maxdomain_vector write:
    max(region0) of U = (1.0007929 0.0013448687 1.587625e-16)

Time = 13

DILUPBiCGStab:  Solving for Ux, Initial residual = 0.01290308, Final residual = 3.4340195e-14, No Iterations 3
DILUPBiCGStab:  Solving for Uy, Initial residual = 0.0054049082, Final residual = 4.1912262e-10, No Iterations 3
DICPCG:  Solving for p, Initial residual = 0.010334009, Final residual = 0.00010037269, No Iterations 78
DICPCG:  Solving for p, Initial residual = 9.9330083e-05, Final residual = 9.5510582e-07, No Iterations 72
DICPCG:  Solving for p, Initial residual = 9.547857e-07, Final residual = 8.2988206e-09, No Iterations 75
time step continuity errors : sum local = 1.5189704e-12, global = 5.4710346e-14, cumulative = -1.6475219e-12
DILUPBiCGStab:  Solving for epsilon, Initial residual = 0.019458292, Final residual = 1.5149714e-20, No Iterations 3
DILUPBiCGStab:  Solving for k, Initial residual = 0.035355332, Final residual = 1.5385494e-16, No Iterations 3
ExecutionTime = 1.19 s  ClockTime = 1 s

volFieldValue minmaxdomain_scalar write:

volFieldValue minmaxdomain_vector write:

volFieldValue mindomain_scalar write:
    min(region0) of p = -0.0014990099
    min(region0) of k = 1.0841054e-06
    min(region0) of epsilon = 1.5320795e-05
    min(region0) of nut = 3.3503411e-12

volFieldValue mindomain_vector write:
    min(region0) of U = (0.069130335 -6.5953618e-06 -2.8943429e-18)

volFieldValue maxdomain_scalar write:
    max(region0) of p = 0.0058533862
    max(region0) of k = 0.032824752
    max(region0) of epsilon = 2684.2904
    max(region0) of nut = 1.1104497e-07

volFieldValue maxdomain_vector write:
    max(region0) of U = (1.0008639 0.0014343209 1.5242259e-16)

Time = 14

DILUPBiCGStab:  Solving for Ux, Initial residual = 0.011967913, Final residual = 3.3656296e-14, No Iterations 3
DILUPBiCGStab:  Solving for Uy, Initial residual = 0.0050079564, Final residual = 4.024057e-10, No Iterations 3
DICPCG:  Solving for p, Initial residual = 0.010006814, Final residual = 8.4073991e-05, No Iterations 79
DICPCG:  Solving for p, Initial residual = 8.2998392e-05, Final residual = 7.1210115e-07, No Iterations 76
DICPCG:  Solving for p, Initial residual = 7.1188254e-07, Final residual = 9.802908e-09, No Iterations 59
time step continuity errors : sum local = 1.820923e-12, global = -4.2751116e-13, cumulative = -2.075033e-12
DILUPBiCGStab:  Solving for epsilon, Initial residual = 0.019919977, Final residual = 1.5942986e-20, No Iterations 3
DILUPBiCGStab:  Solving for k, Initial residual = 0.034060417, Final residual = 1.5744674e-16, No Iterations 3
ExecutionTime = 1.32 s  ClockTime = 1 s

volFieldValue minmaxdomain_scalar write:

volFieldValue minmaxdomain_vector write:

volFieldValue mindomain_scalar write:
    min(region0) of p = -0.0016037796
    min(region0) of k = 8.3708972e-07
    min(region0) of epsilon = 1.0572374e-05
    min(region0) of nut = 3.1607287e-12

volFieldValue mindomain_vector write:
    min(region0) of U = (0.065798213 -6.1762375e-06 -2.9632078e-18)

volFieldValue maxdomain_scalar write:
    max(region0) of p = 0.0058640387
    max(region0) of k = 0.030333625
    max(region0) of epsilon = 2377.8844
    max(region0) of nut = 1.2496906e-07

volFieldValue maxdomain_vector write:
    max(region0) of U = (1.000934 0.0015250926 1.4682045e-16)

Time = 15

DILUPBiCGStab:  Solving for Ux, Initial residual = 0.011160962, Final residual = 3.3396432e-14, No Iterations 3
DILUPBiCGStab:  Solving for Uy, Initial residual = 0.0046778941, Final residual = 3.9900959e-10, No Iterations 3
DICPCG:  Solving for p, Initial residual = 0.0096970689, Final residual = 8.7011738e-05, No Iterations 79
DICPCG:  Solving for p, Initial residual = 8.5752091e-05, Final residual = 7.9678934e-07, No Iterations 76
DICPCG:  Solving for p, Initial residual = 7.9652755e-07, Final residual = 8.6230811e-09, No Iterations 72
time step continuity errors : sum local = 1.6269773e-12, global = -7.4270626e-14, cumulative = -2.1493037e-12
DILUPBiCGStab:  Solving for epsilon, Initial residual = 0.019713474, Final residual = 1.6915985e-20, No Iterations 3
DILUPBiCGStab:  Solving for k, Initial residual = 0.032515725, Final residual = 1.6020179e-16, No Iterations 3
ExecutionTime = 1.42 s  ClockTime = 2 s

volFieldValue minmaxdomain_scalar write:

volFieldValue minmaxdomain_vector write:

volFieldValue mindomain_scalar write:
    min(region0) of p = -0.0017108791
    min(region0) of k = 6.5597979e-07
    min(region0) of epsilon = 7.4374024e-06
    min(region0) of nut = 3.0587083e-12

volFieldValue mindomain_vector write:
    min(region0) of U = (0.062827643 -5.8323688e-06 -3.0286733e-18)

volFieldValue maxdomain_scalar write:
    max(region0) of p = 0.0058855194
    max(region0) of k = 0.028094156
    max(region0) of epsilon = 2112.3946
    max(region0) of nut = 1.3939456e-07

volFieldValue maxdomain_vector write:
    max(region0) of U = (1.0010034 0.0016173344 1.4158568e-16)

Time = 16

DILUPBiCGStab:  Solving for Ux, Initial residual = 0.01045714, Final residual = 3.3351673e-14, No Iterations 3
DILUPBiCGStab:  Solving for Uy, Initial residual = 0.0043958822, Final residual = 3.8831239e-10, No Iterations 3
DICPCG:  Solving for p, Initial residual = 0.0093943368, Final residual = 8.9515629e-05, No Iterations 79
DICPCG:  Solving for p, Initial residual = 8.8061867e-05, Final residual = 8.5796261e-07, No Iterations 76
DICPCG:  Solving for p, Initial residual = 8.5767861e-07, Final residual = 9.2984509e-09, No Iterations 72
time step continuity errors : sum local = 1.7841404e-12, global = -7.1156112e-14, cumulative = -2.2204598e-12
DILUPBiCGStab:  Solving for epsilon, Initial residual = 0.019886813, Final residual = 1.7663639e-20, No Iterations 3
DILUPBiCGStab:  Solving for k, Initial residual = 0.030860662, Final residual = 1.638806e-16, No Iterations 3
ExecutionTime = 1.51 s  ClockTime = 2 s

volFieldValue minmaxdomain_scalar write:

volFieldValue minmaxdomain_vector write:

volFieldValue mindomain_scalar write:
    min(region0) of p = -0.0018198795
    min(region0) of k = 5.2120497e-07
    min(region0) of epsilon = 5.3297745e-06
    min(region0) of nut = 2.8414724e-12

volFieldValue mindomain_vector write:
    min(region0) of U = (0.060156178 -5.6758216e-06 -3.1043598e-18)

volFieldValue maxdomain_scalar write:
    max(region0) of p = 0.0059172114
    max(region0) of k = 0.02608221
    max(region0) of epsilon = 1882.8362
    max(region0) of nut = 1.5445847e-07

volFieldValue maxdomain_vector write:
    max(region0) of U = (1.0010725 0.0017111779 1.3663605e-16)

Time = 17

DILUPBiCGStab:  Solving for Ux, Initial residual = 0.0098370709, Final residual = 3.4042161e-14, No Iterations 3
DILUPBiCGStab:  Solving for Uy, Initial residual = 0.0041475806, Final residual = 3.7093383e-10, No Iterations 3
DICPCG:  Solving for p, Initial residual = 0.0091241168, Final residual = 7.9178943e-05, No Iterations 80
DICPCG:  Solving for p, Initial residual = 7.7720245e-05, Final residual = 6.8206498e-07, No Iterations 77
DICPCG:  Solving for p, Initial residual = 6.8188377e-07, Final residual = 9.8553114e-09, No Iterations 70
time step continuity errors : sum local = 1.9259701e-12, global = -2.2674234e-13, cumulative = -2.4472021e-12
DILUPBiCGStab:  Solving for epsilon, Initial residual = 0.020072941, Final residual = 1.8045412e-20, No Iterations 3
DILUPBiCGStab:  Solving for k, Initial residual = 0.029162952, Final residual = 1.6716844e-16, No Iterations 3
ExecutionTime = 1.6 s  ClockTime = 2 s

volFieldValue minmaxdomain_scalar write:

volFieldValue minmaxdomain_vector write:

volFieldValue mindomain_scalar write:
    min(region0) of p = -0.0019307763
    min(region0) of k = 4.1947552e-07
    min(region0) of epsilon = 3.8873651e-06
    min(region0) of nut = 2.6728978e-12

volFieldValue mindomain_vector write:
    min(region0) of U = (0.057735669 -5.5504987e-06 -3.1864317e-18)

volFieldValue maxdomain_scalar write:
    max(region0) of p = 0.0059595906
    max(region0) of k = 0.024273095
    max(region0) of epsilon = 1695.966
    max(region0) of nut = 1.7022793e-07

volFieldValue maxdomain_vector write:
    max(region0) of U = (1.0011445 0.00180691 1.3197889e-16)

Time = 18

DILUPBiCGStab:  Solving for Ux, Initial residual = 0.0092862979, Final residual = 3.6148571e-14, No Iterations 3
DILUPBiCGStab:  Solving for Uy, Initial residual = 0.00392842, Final residual = 3.5469564e-10, No Iterations 3
DICPCG:  Solving for p, Initial residual = 0.0088785491, Final residual = 8.0197265e-05, No Iterations 80
DICPCG:  Solving for p, Initial residual = 7.8564737e-05, Final residual = 7.0658721e-07, No Iterations 77
DICPCG:  Solving for p, Initial residual = 7.0640154e-07, Final residual = 9.1341131e-09, No Iterations 72
time step continuity errors : sum local = 1.8207083e-12, global = -9.1608644e-14, cumulative = -2.5388108e-12
DILUPBiCGStab:  Solving for epsilon, Initial residual = 0.01992063, Final residual = 1.8177604e-20, No Iterations 3
DILUPBiCGStab:  Solving for k, Initial residual = 0.027733494, Final residual = 1.7152417e-16, No Iterations 3
ExecutionTime = 1.7 s  ClockTime = 2 s

volFieldValue minmaxdomain_scalar write:

volFieldValue minmaxdomain_vector write:

volFieldValue mindomain_scalar write:
    min(region0) of p = -0.0020439738
    min(region0) of k = 3.4164464e-07
    min(region0) of epsilon = 2.8829817e-06
    min(region0) of nut = 2.559913e-12

volFieldValue mindomain_vector write:
    min(region0) of U = (0.055528294 -5.5164662e-06 -3.2785615e-18)

volFieldValue maxdomain_scalar write:
    max(region0) of p = 0.0060124009
    max(region0) of k = 0.022643436
    max(region0) of epsilon = 1556.8918
    max(region0) of nut = 1.8657131e-07

volFieldValue maxdomain_vector write:
    max(region0) of U = (1.0012172 0.0019045782 1.2761396e-16)

Time = 19

DILUPBiCGStab:  Solving for Ux, Initial residual = 0.0087926062, Final residual = 3.9438647e-14, No Iterations 3
DILUPBiCGStab:  Solving for Uy, Initial residual = 0.0037347503, Final residual = 3.4342111e-10, No Iterations 3
DICPCG:  Solving for p, Initial residual = 0.0086452789, Final residual = 8.0643509e-05, No Iterations 80
DICPCG:  Solving for p, Initial residual = 7.8860471e-05, Final residual = 7.2471622e-07, No Iterations 77
DICPCG:  Solving for p, Initial residual = 7.2453242e-07, Final residual = 9.0907076e-09, No Iterations 72
time step continuity errors : sum local = 1.8505282e-12, global = -1.0237984e-13, cumulative = -2.6411906e-12
DILUPBiCGStab:  Solving for epsilon, Initial residual = 0.019929852, Final residual = 1.8082167e-20, No Iterations 3
DILUPBiCGStab:  Solving for k, Initial residual = 0.026796623, Final residual = 1.7507763e-16, No Iterations 3
ExecutionTime = 1.8 s  ClockTime = 2 s

volFieldValue minmaxdomain_scalar write:

volFieldValue minmaxdomain_vector write:

volFieldValue mindomain_scalar write:
    min(region0) of p = -0.002159903
    min(region0) of k = 2.8133253e-07
    min(region0) of epsilon = 2.1718499e-06
    min(region0) of nut = 2.4899152e-12

volFieldValue mindomain_vector write:
    min(region0) of U = (0.053503851 -5.3581869e-06 -3.3697033e-18)

volFieldValue maxdomain_scalar write:
    max(region0) of p = 0.0060742926
    max(region0) of k = 0.021171986
    max(region0) of epsilon = 1430.2829
    max(region0) of nut = 2.0345624e-07

volFieldValue maxdomain_vector write:
    max(region0) of U = (1.0012904 0.0020043691 1.2352073e-16)

Time = 20

DILUPBiCGStab:  Solving for Ux, Initial residual = 0.0083482208, Final residual = 4.3974417e-14, No Iterations 3
DILUPBiCGStab:  Solving for Uy, Initial residual = 0.0035636614, Final residual = 3.3554757e-10, No Iterations 3
DICPCG:  Solving for p, Initial residual = 0.0084169344, Final residual = 8.2900952e-05, No Iterations 80
DICPCG:  Solving for p, Initial residual = 8.0943688e-05, Final residual = 7.3852503e-07, No Iterations 77
DICPCG:  Solving for p, Initial residual = 7.3833252e-07, Final residual = 9.9157526e-09, No Iterations 72
time step continuity errors : sum local = 2.0635587e-12, global = -1.075032e-13, cumulative = -2.7486938e-12
DILUPBiCGStab:  Solving for epsilon, Initial residual = 0.019976792, Final residual = 1.7936223e-20, No Iterations 3
DILUPBiCGStab:  Solving for k, Initial residual = 0.025838234, Final residual = 1.7878593e-16, No Iterations 3
ExecutionTime = 1.9 s  ClockTime = 2 s

volFieldValue minmaxdomain_scalar write:

volFieldValue minmaxdomain_vector write:

volFieldValue mindomain_scalar write:
    min(region0) of p = -0.0022780894
    min(region0) of k = 2.3403062e-07
    min(region0) of epsilon = 1.660261e-06
    min(region0) of nut = 2.3832673e-12

volFieldValue mindomain_vector write:
    min(region0) of U = (0.051637882 -5.1857645e-06 -3.461698e-18)

volFieldValue maxdomain_scalar write:
    max(region0) of p = 0.006144513
    max(region0) of k = 0.019839858
    max(region0) of epsilon = 1315.3885
    max(region0) of nut = 2.2093807e-07

volFieldValue maxdomain_vector write:
    max(region0) of U = (1.0013643 0.0021065559 1.1967282e-16)

Time = 21

DILUPBiCGStab:  Solving for Ux, Initial residual = 0.0079455951, Final residual = 5.0076319e-14, No Iterations 3
DILUPBiCGStab:  Solving for Uy, Initial residual = 0.0034113305, Final residual = 3.2967098e-10, No Iterations 3
DICPCG:  Solving for p, Initial residual = 0.0082046157, Final residual = 7.7756544e-05, No Iterations 81
DICPCG:  Solving for p, Initial residual = 7.5828109e-05, Final residual = 6.9311641e-07, No Iterations 77
DICPCG:  Solving for p, Initial residual = 6.9296224e-07, Final residual = 8.3081392e-09, No Iterations 73
time step continuity errors : sum local = 1.7688111e-12, global = -5.0915762e-14, cumulative = -2.7996096e-12
DILUPBiCGStab:  Solving for epsilon, Initial residual = 0.019862479, Final residual = 1.7696849e-20, No Iterations 3
DILUPBiCGStab:  Solving for k, Initial residual = 0.024880022, Final residual = 1.8053661e-16, No Iterations 3
ExecutionTime = 1.99 s  ClockTime = 2 s

volFieldValue minmaxdomain_scalar write:

volFieldValue minmaxdomain_vector write:

volFieldValue mindomain_scalar write:
    min(region0) of p = -0.002398539
    min(region0) of k = 1.9651186e-07
    min(region0) of epsilon = 1.2866097e-06
    min(region0) of nut = 2.2509183e-12

volFieldValue mindomain_vector write:
    min(region0) of U = (0.049910334 -5.1230324e-06 -3.5610671e-18)

volFieldValue maxdomain_scalar write:
    max(region0) of p = 0.006222453
    max(region0) of k = 0.018630476
    max(region0) of epsilon = 1211.2938
    max(region0) of nut = 2.3903179e-07

volFieldValue maxdomain_vector write:
    max(region0) of U = (1.001439 0.0022110762 1.1604788e-16)

Time = 22

DILUPBiCGStab:  Solving for Ux, Initial residual = 0.0075787241, Final residual = 5.6658124e-14, No Iterations 3
DILUPBiCGStab:  Solving for Uy, Initial residual = 0.0032744312, Final residual = 3.2569228e-10, No Iterations 3
DICPCG:  Solving for p, Initial residual = 0.0080457375, Final residual = 7.8605911e-05, No Iterations 81
DICPCG:  Solving for p, Initial residual = 7.6568978e-05, Final residual = 7.1076685e-07, No Iterations 77
DICPCG:  Solving for p, Initial residual = 7.1060554e-07, Final residual = 9.8700737e-09, No Iterations 72
time step continuity errors : sum local = 2.1516461e-12, global = -1.2118067e-13, cumulative = -2.9207902e-12
DILUPBiCGStab:  Solving for epsilon, Initial residual = 0.019742155, Final residual = 1.7507371e-20, No Iterations 3
DILUPBiCGStab:  Solving for k, Initial residual = 0.023936906, Final residual = 1.8352185e-16, No Iterations 3
ExecutionTime = 2.08 s  ClockTime = 2 s

volFieldValue minmaxdomain_scalar write:

volFieldValue minmaxdomain_vector write:

volFieldValue mindomain_scalar write:
    min(region0) of p = -0.0025216515
    min(region0) of k = 1.6643775e-07
    min(region0) of epsilon = 1.0097717e-06
    min(region0) of nut = 2.1514845e-12

volFieldValue mindomain_vector write:
    min(region0) of U = (0.04830458 -4.9839993e-06 -3.6662974e-18)

volFieldValue maxdomain_scalar write:
    max(region0) of p = 0.0063076222
    max(region0) of k = 0.017529398
    max(region0) of epsilon = 1117.0345
    max(region0) of nut = 2.57747e-07

volFieldValue maxdomain_vector write:
    max(region0) of U = (1.0015147 0.0023180349 1.1262854e-16)

Time = 23

DILUPBiCGStab:  Solving for Ux, Initial residual = 0.0072432877, Final residual = 6.4630834e-14, No Iterations 3
DILUPBiCGStab:  Solving for Uy, Initial residual = 0.0031508869, Final residual = 3.2234833e-10, No Iterations 3
DICPCG:  Solving for p, Initial residual = 0.0079079613, Final residual = 7.8935809e-05, No Iterations 81
DICPCG:  Solving for p, Initial residual = 7.6807055e-05, Final residual = 7.0262591e-07, No Iterations 77
DICPCG:  Solving for p, Initial residual = 7.0247285e-07, Final residual = 9.9877102e-09, No Iterations 72
time step continuity errors : sum local = 2.2311106e-12, global = -1.2305144e-13, cumulative = -3.0438417e-12
DILUPBiCGStab:  Solving for epsilon, Initial residual = 0.019730446, Final residual = 1.7251656e-20, No Iterations 3
DILUPBiCGStab:  Solving for k, Initial residual = 0.023013476, Final residual = 1.8425351e-16, No Iterations 3
ExecutionTime = 2.18 s  ClockTime = 2 s

volFieldValue minmaxdomain_scalar write:

volFieldValue minmaxdomain_vector write:

volFieldValue mindomain_scalar write:
    min(region0) of p = -0.0026475727
    min(region0) of k = 1.4209322e-07
    min(region0) of epsilon = 8.0188207e-07
    min(region0) of nut = 2.0786616e-12

volFieldValue mindomain_vector write:
    min(region0) of U = (0.046806698 -4.7955805e-06 -3.7774739e-18)

volFieldValue maxdomain_scalar write:
    max(region0) of p = 0.0063997136
    max(region0) of k = 0.016524086
    max(region0) of epsilon = 1031.6634
    max(region0) of nut = 2.7709257e-07

volFieldValue maxdomain_vector write:
    max(region0) of U = (1.0015917 0.0024278759 1.0940001e-16)

Time = 24

DILUPBiCGStab:  Solving for Ux, Initial residual = 0.0069350984, Final residual = 7.5321654e-14, No Iterations 3
DILUPBiCGStab:  Solving for Uy, Initial residual = 0.0030389043, Final residual = 3.1935186e-10, No Iterations 3
DICPCG:  Solving for p, Initial residual = 0.007795248, Final residual = 7.182545e-05, No Iterations 84
DICPCG:  Solving for p, Initial residual = 6.9814933e-05, Final residual = 6.969185e-07, No Iterations 49
DICPCG:  Solving for p, Initial residual = 6.9687453e-07, Final residual = 8.8578953e-09, No Iterations 75
time step continuity errors : sum local = 2.0290804e-12, global = -4.2644434e-14, cumulative = -3.0864861e-12
DILUPBiCGStab:  Solving for epsilon, Initial residual = 0.019628781, Final residual = 1.7024845e-20, No Iterations 3
DILUPBiCGStab:  Solving for k, Initial residual = 0.022291682, Final residual = 1.8567979e-16, No Iterations 3
ExecutionTime = 2.28 s  ClockTime = 2 s

volFieldValue minmaxdomain_scalar write:

volFieldValue minmaxdomain_vector write:

volFieldValue mindomain_scalar write:
    min(region0) of p = -0.0027764725
    min(region0) of k = 1.222065e-07
    min(region0) of epsilon = 6.4378485e-07
    min(region0) of nut = 2.0278286e-12

volFieldValue mindomain_vector write:
    min(region0) of U = (0.045404927 -4.7262998e-06 -3.8950036e-18)

volFieldValue maxdomain_scalar write:
    max(region0) of p = 0.0064984975
    max(region0) of k = 0.015603668
    max(region0) of epsilon = 954.28576
    max(region0) of nut = 2.9707713e-07

volFieldValue maxdomain_vector write:
    max(region0) of U = (1.0016699 0.0025403984 1.0634836e-16)

Time = 25

DILUPBiCGStab:  Solving for Ux, Initial residual = 0.0066507039, Final residual = 9.1507772e-14, No Iterations 3
DILUPBiCGStab:  Solving for Uy, Initial residual = 0.0029370383, Final residual = 3.1685987e-10, No Iterations 3
DICPCG:  Solving for p, Initial residual = 0.0077066235, Final residual = 7.409973e-05, No Iterations 84
DICPCG:  Solving for p, Initial residual = 7.1964047e-05, Final residual = 7.1087544e-07, No Iterations 63
DICPCG:  Solving for p, Initial residual = 7.1081366e-07, Final residual = 9.2049256e-09, No Iterations 69
time step continuity errors : sum local = 2.1636534e-12, global = -8.0551562e-14, cumulative = -3.1670377e-12
DILUPBiCGStab:  Solving for epsilon, Initial residual = 0.01946059, Final residual = 1.6852322e-20, No Iterations 3
DILUPBiCGStab:  Solving for k, Initial residual = 0.021691383, Final residual = 1.8587985e-16, No Iterations 3
ExecutionTime = 2.38 s  ClockTime = 3 s

volFieldValue minmaxdomain_scalar write:

volFieldValue minmaxdomain_vector write:

volFieldValue mindomain_scalar write:
    min(region0) of p = -0.0029085794
    min(region0) of k = 1.0582547e-07
    min(region0) of epsilon = 5.2212605e-07
    min(region0) of nut = 1.9612773e-12

volFieldValue mindomain_vector write:
    min(region0) of U = (0.044089251 -4.6261719e-06 -4.0199429e-18)

volFieldValue maxdomain_scalar write:
    max(region0) of p = 0.00660375
    max(region0) of k = 0.014758717
    max(region0) of epsilon = 884.07677
    max(region0) of nut = 3.1770919e-07

volFieldValue maxdomain_vector write:
    max(region0) of U = (1.0017494 0.0026556478 1.0346012e-16)

Time = 26

DILUPBiCGStab:  Solving for Ux, Initial residual = 0.0063878994, Final residual = 1.2201238e-13, No Iterations 3
DILUPBiCGStab:  Solving for Uy, Initial residual = 0.0028439117, Final residual = 3.1473724e-10, No Iterations 3
DICPCG:  Solving for p, Initial residual = 0.0076573482, Final residual = 7.4390716e-05, No Iterations 84
DICPCG:  Solving for p, Initial residual = 7.2191913e-05, Final residual = 7.2011718e-07, No Iterations 49
DICPCG:  Solving for p, Initial residual = 7.2006543e-07, Final residual = 9.3281459e-09, No Iterations 75
time step continuity errors : sum local = 2.25112e-12, global = -3.5701619e-14, cumulative = -3.2027393e-12
DILUPBiCGStab:  Solving for epsilon, Initial residual = 0.019384605, Final residual = 1.6627781e-20, No Iterations 3
DILUPBiCGStab:  Solving for k, Initial residual = 0.021101553, Final residual = 1.8645476e-16, No Iterations 3
ExecutionTime = 2.47 s  ClockTime = 3 s

volFieldValue minmaxdomain_scalar write:

volFieldValue minmaxdomain_vector write:

volFieldValue mindomain_scalar write:
    min(region0) of p = -0.0030439832
    min(region0) of k = 9.2230438e-08
    min(region0) of epsilon = 4.2747524e-07
    min(region0) of nut = 1.8592861e-12

volFieldValue mindomain_vector write:
    min(region0) of U = (0.042851077 -4.492725e-06 -4.1541557e-18)

volFieldValue maxdomain_scalar write:
    max(region0) of p = 0.0067152423
    max(region0) of k = 0.013981045
    max(region0) of epsilon = 820.28739
    max(region0) of nut = 3.3899711e-07

volFieldValue maxdomain_vector write:
    max(region0) of U = (1.0018303 0.0027738829 1.0072259e-16)

Time = 27

DILUPBiCGStab:  Solving for Ux, Initial residual = 0.0061439276, Final residual = 2.0439438e-13, No Iterations 3
DILUPBiCGStab:  Solving for Uy, Initial residual = 0.0027589713, Final residual = 3.1253517e-10, No Iterations 3
DICPCG:  Solving for p, Initial residual = 0.0076018173, Final residual = 7.3136465e-05, No Iterations 84
DICPCG:  Solving for p, Initial residual = 7.0925029e-05, Final residual = 6.9697708e-07, No Iterations 48
DICPCG:  Solving for p, Initial residual = 6.9693539e-07, Final residual = 9.4608481e-09, No Iterations 72
time step continuity errors : sum local = 2.345162e-12, global = -1.0418974e-13, cumulative = -3.306929e-12
DILUPBiCGStab:  Solving for epsilon, Initial residual = 0.019298607, Final residual = 1.6463e-20, No Iterations 3
DILUPBiCGStab:  Solving for k, Initial residual = 0.020526845, Final residual = 1.85252e-16, No Iterations 3
ExecutionTime = 2.57 s  ClockTime = 3 s

volFieldValue minmaxdomain_scalar write:

volFieldValue minmaxdomain_vector write:

volFieldValue mindomain_scalar write:
    min(region0) of p = -0.0031827139
    min(region0) of k = 8.0872945e-08
    min(region0) of epsilon = 3.5309178e-07
    min(region0) of nut = 1.7766565e-12

volFieldValue mindomain_vector write:
    min(region0) of U = (0.041682985 -4.3843565e-06 -4.2970153e-18)

volFieldValue maxdomain_scalar write:
    max(region0) of p = 0.0068327524
    max(region0) of k = 0.013263534
    max(region0) of epsilon = 766.63988
    max(region0) of nut = 3.6094911e-07

volFieldValue maxdomain_vector write:
    max(region0) of U = (1.0019127 0.0028954678 9.8124122e-17)

Time = 28

DILUPBiCGStab:  Solving for Ux, Initial residual = 0.005916438, Final residual = 9.9233026e-13, No Iterations 3
DILUPBiCGStab:  Solving for Uy, Initial residual = 0.0026811704, Final residual = 3.1044154e-10, No Iterations 3
DICPCG:  Solving for p, Initial residual = 0.0075466167, Final residual = 7.3768041e-05, No Iterations 84
DICPCG:  Solving for p, Initial residual = 7.1495874e-05, Final residual = 6.9588873e-07, No Iterations 49
DICPCG:  Solving for p, Initial residual = 6.958456e-07, Final residual = 9.0457771e-09, No Iterations 75
time step continuity errors : sum local = 2.3040759e-12, global = -3.6081549e-14, cumulative = -3.3430106e-12
DILUPBiCGStab:  Solving for epsilon, Initial residual = 0.019176203, Final residual = 1.633407e-20, No Iterations 3
DILUPBiCGStab:  Solving for k, Initial residual = 0.019968838, Final residual = 1.8316696e-16, No Iterations 3
ExecutionTime = 2.66 s  ClockTime = 3 s

volFieldValue minmaxdomain_scalar write:

volFieldValue minmaxdomain_vector write:

volFieldValue mindomain_scalar write:
    min(region0) of p = -0.0033246147
    min(region0) of k = 7.1332488e-08
    min(region0) of epsilon = 2.9409925e-07
    min(region0) of nut = 1.7102535e-12

volFieldValue mindomain_vector write:
    min(region0) of U = (0.040578527 -4.3561632e-06 -4.4486502e-18)

volFieldValue maxdomain_scalar write:
    max(region0) of p = 0.0069562589
    max(region0) of k = 0.012599974
    max(region0) of epsilon = 719.66721
    max(region0) of nut = 3.8357329e-07

volFieldValue maxdomain_vector write:
    max(region0) of U = (1.0019964 0.003020026 9.5654153e-17)

Time = 29

DILUPBiCGStab:  Solving for Ux, Initial residual = 0.0057045853, Final residual = 2.907406e-13, No Iterations 3
DILUPBiCGStab:  Solving for Uy, Initial residual = 0.002609359, Final residual = 3.0867923e-10, No Iterations 3
DICPCG:  Solving for p, Initial residual = 0.0074857235, Final residual = 7.3557547e-05, No Iterations 84
DICPCG:  Solving for p, Initial residual = 7.1255389e-05, Final residual = 7.0400097e-07, No Iterations 48
DICPCG:  Solving for p, Initial residual = 7.0395824e-07, Final residual = 9.8889182e-09, No Iterations 72
time step continuity errors : sum local = 2.5892709e-12, global = -1.0475113e-13, cumulative = -3.4477617e-12
DILUPBiCGStab:  Solving for epsilon, Initial residual = 0.019026583, Final residual = 1.6205831e-20, No Iterations 3
DILUPBiCGStab:  Solving for k, Initial residual = 0.01942754, Final residual = 1.8174982e-16, No Iterations 3
ExecutionTime = 2.76 s  ClockTime = 3 s

volFieldValue minmaxdomain_scalar write:

volFieldValue minmaxdomain_vector write:

volFieldValue mindomain_scalar write:
    min(region0) of p = -0.0034697146
    min(region0) of k = 6.328531e-08
    min(region0) of epsilon = 2.4693208e-07
    min(region0) of nut = 1.6576517e-12

volFieldValue mindomain_vector write:
    min(region0) of U = (0.039532069 -4.3048897e-06 -4.6065807e-18)

volFieldValue maxdomain_scalar write:
    max(region0) of p = 0.0070856303
    max(region0) of k = 0.011984938
    max(region0) of epsilon = 676.05326
    max(region0) of nut = 4.068776e-07

volFieldValue maxdomain_vector write:
    max(region0) of U = (1.0020814 0.0031476259 9.3303108e-17)

Time = 30

DILUPBiCGStab:  Solving for Ux, Initial residual = 0.0055061825, Final residual = 1.2062988e-13, No Iterations 3
DILUPBiCGStab:  Solving for Uy, Initial residual = 0.0025429133, Final residual = 3.0735349e-10, No Iterations 3
DICPCG:  Solving for p, Initial residual = 0.0074302959, Final residual = 7.090124e-05, No Iterations 84
DICPCG:  Solving for p, Initial residual = 6.8650429e-05, Final residual = 6.719685e-07, No Iterations 47
DICPCG:  Solving for p, Initial residual = 6.7192885e-07, Final residual = 8.6879739e-09, No Iterations 71
time step continuity errors : sum local = 2.3392658e-12, global = -7.7880044e-15, cumulative = -3.4555497e-12
DILUPBiCGStab:  Solving for epsilon, Initial residual = 0.018942228, Final residual = 1.6149645e-20, No Iterations 3
DILUPBiCGStab:  Solving for k, Initial residual = 0.01893551, Final residual = 1.7764955e-16, No Iterations 3
ExecutionTime = 2.85 s  ClockTime = 3 s

volFieldValue minmaxdomain_scalar write:

volFieldValue minmaxdomain_vector write:

volFieldValue mindomain_scalar write:
    min(region0) of p = -0.0036180333
    min(region0) of k = 5.6481415e-08
    min(region0) of epsilon = 2.0895814e-07
    min(region0) of nut = 1.6170387e-12

volFieldValue mindomain_vector write:
    min(region0) of U = (0.038538662 -4.2418958e-06 -4.7730511e-18)

volFieldValue maxdomain_scalar write:
    max(region0) of p = 0.0072208671
    max(region0) of k = 0.01141367
    max(region0) of epsilon = 635.5551
    max(region0) of nut = 4.3086986e-07

volFieldValue maxdomain_vector write:
    max(region0) of U = (1.0021678 0.0032786705 9.1062266e-17)

Time = 31

DILUPBiCGStab:  Solving for Ux, Initial residual = 0.0053200643, Final residual = 7.6539746e-14, No Iterations 3
DILUPBiCGStab:  Solving for Uy, Initial residual = 0.0024814883, Final residual = 3.0616766e-10, No Iterations 3
DICPCG:  Solving for p, Initial residual = 0.0073788002, Final residual = 6.0418991e-05, No Iterations 85
DICPCG:  Solving for p, Initial residual = 5.8475739e-05, Final residual = 4.9756852e-07, No Iterations 46
DICPCG:  Solving for p, Initial residual = 4.9754672e-07, Final residual = 8.8815755e-09, No Iterations 69
time step continuity errors : sum local = 2.459574e-12, global = 1.2613342e-13, cumulative = -3.3294163e-12
DILUPBiCGStab:  Solving for epsilon, Initial residual = 0.018836145, Final residual = 1.6178692e-20, No Iterations 3
DILUPBiCGStab:  Solving for k, Initial residual = 0.018562502, Final residual = 1.7442125e-16, No Iterations 3
ExecutionTime = 2.95 s  ClockTime = 3 s

volFieldValue minmaxdomain_scalar write:

volFieldValue minmaxdomain_vector write:

volFieldValue mindomain_scalar write:
    min(region0) of p = -0.0037695733
    min(region0) of k = 5.0727265e-08
    min(region0) of epsilon = 1.7821702e-07
    min(region0) of nut = 1.5641795e-12

volFieldValue mindomain_vector write:
    min(region0) of U = (0.037593938 -4.1738622e-06 -4.9481568e-18)

volFieldValue maxdomain_scalar write:
    max(region0) of p = 0.007361959
    max(region0) of k = 0.010881987
    max(region0) of epsilon = 597.93985
    max(region0) of nut = 4.5555778e-07

volFieldValue maxdomain_vector write:
    max(region0) of U = (1.0022553 0.0034135055 8.8923705e-17)

Time = 32

DILUPBiCGStab:  Solving for Ux, Initial residual = 0.0051452007, Final residual = 5.837011e-14, No Iterations 3
DILUPBiCGStab:  Solving for Uy, Initial residual = 0.0024245885, Final residual = 3.0510782e-10, No Iterations 3
DICPCG:  Solving for p, Initial residual = 0.0073307791, Final residual = 5.9997099e-05, No Iterations 85
DICPCG:  Solving for p, Initial residual = 5.8045649e-05, Final residual = 4.9666068e-07, No Iterations 46
DICPCG:  Solving for p, Initial residual = 4.966381e-07, Final residual = 9.9308029e-09, No Iterations 68
time step continuity errors : sum local = 2.829415e-12, global = 7.7224073e-14, cumulative = -3.2521922e-12
DILUPBiCGStab:  Solving for epsilon, Initial residual = 0.018716221, Final residual = 1.6275569e-20, No Iterations 3
DILUPBiCGStab:  Solving for k, Initial residual = 0.018192186, Final residual = 1.7178317e-16, No Iterations 3
ExecutionTime = 3.05 s  ClockTime = 3 s

volFieldValue minmaxdomain_scalar write:

volFieldValue minmaxdomain_vector write:

volFieldValue mindomain_scalar write:
    min(region0) of p = -0.0039243534
    min(region0) of k = 4.5872383e-08
    min(region0) of epsilon = 1.5323574e-07
    min(region0) of nut = 1.4844277e-12

volFieldValue mindomain_vector write:
    min(region0) of U = (0.036694023 -4.170946e-06 -5.1317833e-18)

volFieldValue maxdomain_scalar write:
    max(region0) of p = 0.0075088779
    max(region0) of k = 0.010386203
    max(region0) of epsilon = 562.98718
    max(region0) of nut = 4.8094893e-07

volFieldValue maxdomain_vector write:
    max(region0) of U = (1.0023441 0.003551556 8.6880245e-17)

Time = 33

DILUPBiCGStab:  Solving for Ux, Initial residual = 0.0049807505, Final residual = 4.9695626e-14, No Iterations 3
DILUPBiCGStab:  Solving for Uy, Initial residual = 0.0023718362, Final residual = 3.0408931e-10, No Iterations 3
DICPCG:  Solving for p, Initial residual = 0.0072778745, Final residual = 7.1509791e-05, No Iterations 84
DICPCG:  Solving for p, Initial residual = 6.9160657e-05, Final residual = 6.4676785e-07, No Iterations 47
DICPCG:  Solving for p, Initial residual = 6.4672772e-07, Final residual = 8.3884907e-09, No Iterations 71
time step continuity errors : sum local = 2.4594583e-12, global = -1.7011365e-14, cumulative = -3.2692036e-12
DILUPBiCGStab:  Solving for epsilon, Initial residual = 0.018583616, Final residual = 1.6429144e-20, No Iterations 3
DILUPBiCGStab:  Solving for k, Initial residual = 0.01782517, Final residual = 1.6886074e-16, No Iterations 3
ExecutionTime = 3.14 s  ClockTime = 3 s

volFieldValue minmaxdomain_scalar write:

volFieldValue minmaxdomain_vector write:

volFieldValue mindomain_scalar write:
    min(region0) of p = -0.0040823589
    min(region0) of k = 4.1798653e-08
    min(region0) of epsilon = 1.3289691e-07
    min(region0) of nut = 1.4166121e-12

volFieldValue mindomain_vector write:
    min(region0) of U = (0.03583547 -4.1747497e-06 -5.3233798e-18)

volFieldValue maxdomain_scalar write:
    max(region0) of p = 0.0076615727
    max(region0) of k = 0.0099230556
    max(region0) of epsilon = 530.49071
    max(region0) of nut = 5.0705077e-07

volFieldValue maxdomain_vector write:
    max(region0) of U = (1.002434 0.0036928838 8.4925348e-17)

Time = 34

DILUPBiCGStab:  Solving for Ux, Initial residual = 0.0048255019, Final residual = 4.5292621e-14, No Iterations 3
DILUPBiCGStab:  Solving for Uy, Initial residual = 0.0023228133, Final residual = 3.0308401e-10, No Iterations 3
DICPCG:  Solving for p, Initial residual = 0.0072224535, Final residual = 5.9461967e-05, No Iterations 85
DICPCG:  Solving for p, Initial residual = 5.7487772e-05, Final residual = 5.6508539e-07, No Iterations 45
DICPCG:  Solving for p, Initial residual = 5.6506143e-07, Final residual = 9.4522587e-09, No Iterations 55
time step continuity errors : sum local = 2.8524322e-12, global = -1.872677e-13, cumulative = -3.4564713e-12
DILUPBiCGStab:  Solving for epsilon, Initial residual = 0.018486122, Final residual = 1.6647763e-20, No Iterations 3
DILUPBiCGStab:  Solving for k, Initial residual = 0.017468029, Final residual = 1.6614269e-16, No Iterations 3
ExecutionTime = 3.21 s  ClockTime = 3 s

volFieldValue minmaxdomain_scalar write:

volFieldValue minmaxdomain_vector write:

volFieldValue mindomain_scalar write:
    min(region0) of p = -0.0042435632
    min(region0) of k = 3.8411589e-08
    min(region0) of epsilon = 1.1634304e-07
    min(region0) of nut = 1.3590796e-12

volFieldValue mindomain_vector write:
    min(region0) of U = (0.035015198 -4.1722236e-06 -5.5237354e-18)

volFieldValue maxdomain_scalar write:
    max(region0) of p = 0.0078199968
    max(region0) of k = 0.0094896553
    max(region0) of epsilon = 500.25848
    max(region0) of nut = 5.338706e-07

volFieldValue maxdomain_vector write:
    max(region0) of U = (1.0025248 0.0038377114 8.305305e-17)

Time = 35

DILUPBiCGStab:  Solving for Ux, Initial residual = 0.0046786329, Final residual = 4.313814e-14, No Iterations 3
DILUPBiCGStab:  Solving for Uy, Initial residual = 0.0022771826, Final residual = 3.0203313e-10, No Iterations 3
DICPCG:  Solving for p, Initial residual = 0.0071692945, Final residual = 5.8846243e-05, No Iterations 85
DICPCG:  Solving for p, Initial residual = 5.6874966e-05, Final residual = 5.5251246e-07, No Iterations 45
DICPCG:  Solving for p, Initial residual = 5.524879e-07, Final residual = 8.751483e-09, No Iterations 55
time step continuity errors : sum local = 2.7187522e-12, global = -1.181676e-13, cumulative = -3.5746389e-12
DILUPBiCGStab:  Solving for epsilon, Initial residual = 0.018379597, Final residual = 1.6881617e-20, No Iterations 3
DILUPBiCGStab:  Solving for k, Initial residual = 0.017120788, Final residual = 1.6342033e-16, No Iterations 3
ExecutionTime = 3.29 s  ClockTime = 3 s

volFieldValue minmaxdomain_scalar write:

volFieldValue minmaxdomain_vector write:

volFieldValue mindomain_scalar write:
    min(region0) of p = -0.0044079812
    min(region0) of k = 3.5633124e-08
    min(region0) of epsilon = 1.0290598e-07
    min(region0) of nut = 1.3104614e-12

volFieldValue mindomain_vector write:
    min(region0) of U = (0.034230442 -4.1639629e-06 -5.7334665e-18)

volFieldValue maxdomain_scalar write:
    max(region0) of p = 0.0079841535
    max(region0) of k = 0.0090834309
    max(region0) of epsilon = 472.11281
    max(region0) of nut = 5.6141563e-07

volFieldValue maxdomain_vector write:
    max(region0) of U = (1.0026165 0.0039871275 8.1257905e-17)

Time = 36

DILUPBiCGStab:  Solving for Ux, Initial residual = 0.0045397775, Final residual = 4.2006412e-14, No Iterations 3
DILUPBiCGStab:  Solving for Uy, Initial residual = 0.0022346519, Final residual = 3.0089662e-10, No Iterations 3
DICPCG:  Solving for p, Initial residual = 0.0071170331, Final residual = 5.8085265e-05, No Iterations 85
DICPCG:  Solving for p, Initial residual = 5.6122464e-05, Final residual = 5.3795715e-07, No Iterations 45
DICPCG:  Solving for p, Initial residual = 5.3793253e-07, Final residual = 8.2493025e-09, No Iterations 55
time step continuity errors : sum local = 2.6385537e-12, global = -4.2919725e-14, cumulative = -3.6175586e-12
DILUPBiCGStab:  Solving for epsilon, Initial residual = 0.018265544, Final residual = 1.7138909e-20, No Iterations 3
DILUPBiCGStab:  Solving for k, Initial residual = 0.016783413, Final residual = 1.6115098e-16, No Iterations 3
ExecutionTime = 3.38 s  ClockTime = 4 s

volFieldValue minmaxdomain_scalar write:

volFieldValue minmaxdomain_vector write:

volFieldValue mindomain_scalar write:
    min(region0) of p = -0.0045755993
    min(region0) of k = 3.3395754e-08
    min(region0) of epsilon = 9.205461e-08
    min(region0) of nut = 1.269615e-12

volFieldValue mindomain_vector write:
    min(region0) of U = (0.033478715 -4.1515188e-06 -5.9534699e-18)

volFieldValue maxdomain_scalar write:
    max(region0) of p = 0.0081540515
    max(region0) of k = 0.0087020899
    max(region0) of epsilon = 445.8899
    max(region0) of nut = 5.8969292e-07

volFieldValue maxdomain_vector write:
    max(region0) of U = (1.0027089 0.0041399154 7.9534944e-17)

Time = 37

DILUPBiCGStab:  Solving for Ux, Initial residual = 0.0044082416, Final residual = 4.147268e-14, No Iterations 3
DILUPBiCGStab:  Solving for Uy, Initial residual = 0.0021949507, Final residual = 2.9964862e-10, No Iterations 3
DICPCG:  Solving for p, Initial residual = 0.007066621, Final residual = 5.7944423e-05, No Iterations 85
DICPCG:  Solving for p, Initial residual = 5.5970053e-05, Final residual = 5.3608466e-07, No Iterations 45
DICPCG:  Solving for p, Initial residual = 5.3606256e-07, Final residual = 9.9100242e-09, No Iterations 54
time step continuity errors : sum local = 3.2643709e-12, global = -6.3532721e-15, cumulative = -3.6239119e-12
DILUPBiCGStab:  Solving for epsilon, Initial residual = 0.018145407, Final residual = 1.7413366e-20, No Iterations 3
DILUPBiCGStab:  Solving for k, Initial residual = 0.016465016, Final residual = 1.5842454e-16, No Iterations 3
ExecutionTime = 3.46 s  ClockTime = 4 s

volFieldValue minmaxdomain_scalar write:

volFieldValue minmaxdomain_vector write:

volFieldValue mindomain_scalar write:
    min(region0) of p = -0.0047463918
    min(region0) of k = 3.1637998e-08
    min(region0) of epsilon = 8.3356184e-08
    min(region0) of nut = 1.2355826e-12

volFieldValue mindomain_vector write:
    min(region0) of U = (0.03275777 -4.1375872e-06 -6.1838994e-18)

volFieldValue maxdomain_scalar write:
    max(region0) of p = 0.0083296826
    max(region0) of k = 0.0083435823
    max(region0) of epsilon = 421.43909
    max(region0) of nut = 6.187094e-07

volFieldValue maxdomain_vector write:
    max(region0) of U = (1.0028019 0.0042961286 7.7879622e-17)

Time = 38

DILUPBiCGStab:  Solving for Ux, Initial residual = 0.0042833093, Final residual = 4.1295005e-14, No Iterations 3
DILUPBiCGStab:  Solving for Uy, Initial residual = 0.0021576241, Final residual = 2.9821117e-10, No Iterations 3
DICPCG:  Solving for p, Initial residual = 0.0070111735, Final residual = 5.6416604e-05, No Iterations 85
DICPCG:  Solving for p, Initial residual = 5.4479441e-05, Final residual = 5.2185763e-07, No Iterations 45
DICPCG:  Solving for p, Initial residual = 5.2183573e-07, Final residual = 9.6444472e-09, No Iterations 54
time step continuity errors : sum local = 3.2721614e-12, global = 1.4095528e-13, cumulative = -3.4829566e-12
DILUPBiCGStab:  Solving for epsilon, Initial residual = 0.018038791, Final residual = 1.7710011e-20, No Iterations 3
DILUPBiCGStab:  Solving for k, Initial residual = 0.016215983, Final residual = 1.5577812e-16, No Iterations 3
ExecutionTime = 3.54 s  ClockTime = 4 s

volFieldValue minmaxdomain_scalar write:

volFieldValue minmaxdomain_vector write:

volFieldValue mindomain_scalar write:
    min(region0) of p = -0.0049202292
    min(region0) of k = 3.0301176e-08
    min(region0) of epsilon = 7.6448298e-08
    min(region0) of nut = 1.1859382e-12

volFieldValue mindomain_vector write:
    min(region0) of U = (0.032065571 -4.126052e-06 -6.4256381e-18)

volFieldValue maxdomain_scalar write:
    max(region0) of p = 0.0085110346
    max(region0) of k = 0.0080060708
    max(region0) of epsilon = 398.62212
    max(region0) of nut = 6.4847189e-07

volFieldValue maxdomain_vector write:
    max(region0) of U = (1.0028953 0.0044558366 7.6287781e-17)

Time = 39

DILUPBiCGStab:  Solving for Ux, Initial residual = 0.004164385, Final residual = 4.1293977e-14, No Iterations 3
DILUPBiCGStab:  Solving for Uy, Initial residual = 0.0021224714, Final residual = 2.9669719e-10, No Iterations 3
DICPCG:  Solving for p, Initial residual = 0.0069499076, Final residual = 5.8086134e-05, No Iterations 85
DICPCG:  Solving for p, Initial residual = 5.6077278e-05, Final residual = 5.2893703e-07, No Iterations 45
DICPCG:  Solving for p, Initial residual = 5.2891253e-07, Final residual = 9.8698879e-09, No Iterations 54
time step continuity errors : sum local = 3.4496533e-12, global = 1.2239417e-13, cumulative = -3.3605624e-12
DILUPBiCGStab:  Solving for epsilon, Initial residual = 0.017931044, Final residual = 1.8003236e-20, No Iterations 3
DILUPBiCGStab:  Solving for k, Initial residual = 0.015974126, Final residual = 1.5339818e-16, No Iterations 3
ExecutionTime = 3.62 s  ClockTime = 4 s

volFieldValue minmaxdomain_scalar write:

volFieldValue minmaxdomain_vector write:

volFieldValue mindomain_scalar write:
    min(region0) of p = -0.0050969113
    min(region0) of k = 2.9327482e-08
    min(region0) of epsilon = 7.1019506e-08
    min(region0) of nut = 1.1239058e-12

volFieldValue mindomain_vector write:
    min(region0) of U = (0.031400272 -4.201232e-06 -6.6794648e-18)

volFieldValue maxdomain_scalar write:
    max(region0) of p = 0.0086979693
    max(region0) of k = 0.0076879041
    max(region0) of epsilon = 377.31224
    max(region0) of nut = 6.7898706e-07

volFieldValue maxdomain_vector write:
    max(region0) of U = (1.002989 0.0046197093 7.4755606e-17)

Time = 40

DILUPBiCGStab:  Solving for Ux, Initial residual = 0.0040513246, Final residual = 4.136479e-14, No Iterations 3
DILUPBiCGStab:  Solving for Uy, Initial residual = 0.0020896084, Final residual = 2.9534843e-10, No Iterations 3
DICPCG:  Solving for p, Initial residual = 0.0068854052, Final residual = 5.8915344e-05, No Iterations 85
DICPCG:  Solving for p, Initial residual = 5.6863516e-05, Final residual = 5.3683898e-07, No Iterations 45
DICPCG:  Solving for p, Initial residual = 5.3681582e-07, Final residual = 9.8649285e-09, No Iterations 54
time step continuity errors : sum local = 3.5522002e-12, global = 1.6969545e-13, cumulative = -3.190867e-12
DILUPBiCGStab:  Solving for epsilon, Initial residual = 0.017820227, Final residual = 1.8324729e-20, No Iterations 3
DILUPBiCGStab:  Solving for k, Initial residual = 0.015738753, Final residual = 1.5109769e-16, No Iterations 3
ExecutionTime = 3.7 s  ClockTime = 4 s

volFieldValue minmaxdomain_scalar write:

volFieldValue minmaxdomain_vector write:

volFieldValue mindomain_scalar write:
    min(region0) of p = -0.005276289
    min(region0) of k = 2.8659255e-08
    min(region0) of epsilon = 6.6796885e-08
    min(region0) of nut = 1.0696294e-12

volFieldValue mindomain_vector write:
    min(region0) of U = (0.030760188 -4.4848241e-06 -6.945677e-18)

volFieldValue maxdomain_scalar write:
    max(region0) of p = 0.0088904435
    max(region0) of k = 0.0073875945
    max(region0) of epsilon = 357.39333
    max(region0) of nut = 7.1026144e-07

volFieldValue maxdomain_vector write:
    max(region0) of U = (1.0030829 0.0047882291 7.3279593e-17)

Time = 41

DILUPBiCGStab:  Solving for Ux, Initial residual = 0.003943671, Final residual = 4.1460058e-14, No Iterations 3
DILUPBiCGStab:  Solving for Uy, Initial residual = 0.0020588176, Final residual = 2.9415604e-10, No Iterations 3
DICPCG:  Solving for p, Initial residual = 0.0068280303, Final residual = 5.6539522e-05, No Iterations 85
DICPCG:  Solving for p, Initial residual = 5.4557505e-05, Final residual = 5.0139295e-07, No Iterations 45
DICPCG:  Solving for p, Initial residual = 5.0137331e-07, Final residual = 8.3722824e-09, No Iterations 55
time step continuity errors : sum local = 3.1064793e-12, global = 3.3262366e-13, cumulative = -2.8582433e-12
DILUPBiCGStab:  Solving for epsilon, Initial residual = 0.017709121, Final residual = 1.8655499e-20, No Iterations 3
DILUPBiCGStab:  Solving for k, Initial residual = 0.015509682, Final residual = 1.4885599e-16, No Iterations 3
ExecutionTime = 3.79 s  ClockTime = 4 s

volFieldValue minmaxdomain_scalar write:

volFieldValue minmaxdomain_vector write:

volFieldValue mindomain_scalar write:
    min(region0) of p = -0.0054582426
    min(region0) of k = 2.823924e-08
    min(region0) of epsilon = 6.3538994e-08
    min(region0) of nut = 1.0221441e-12

volFieldValue mindomain_vector write:
    min(region0) of U = (0.030143783 -4.763407e-06 -7.2244994e-18)

volFieldValue maxdomain_scalar write:
    max(region0) of p = 0.0090884526
    max(region0) of k = 0.0071037986
    max(region0) of epsilon = 338.75911
    max(region0) of nut = 7.4230147e-07

volFieldValue maxdomain_vector write:
    max(region0) of U = (1.0031768 0.0049601993 7.1856517e-17)

Time = 42

DILUPBiCGStab:  Solving for Ux, Initial residual = 0.003840873, Final residual = 4.1592248e-14, No Iterations 3
DILUPBiCGStab:  Solving for Uy, Initial residual = 0.0020300149, Final residual = 2.9309607e-10, No Iterations 3
DICPCG:  Solving for p, Initial residual = 0.0067725332, Final residual = 5.7725071e-05, No Iterations 85
DICPCG:  Solving for p, Initial residual = 5.5690009e-05, Final residual = 5.1850057e-07, No Iterations 45
DICPCG:  Solving for p, Initial residual = 5.1847586e-07, Final residual = 8.7681808e-09, No Iterations 55
time step continuity errors : sum local = 3.3524454e-12, global = 3.4717833e-13, cumulative = -2.511065e-12
DILUPBiCGStab:  Solving for epsilon, Initial residual = 0.017596709, Final residual = 1.8992193e-20, No Iterations 3
DILUPBiCGStab:  Solving for k, Initial residual = 0.015286757, Final residual = 1.4759185e-16, No Iterations 3
ExecutionTime = 3.87 s  ClockTime = 4 s

volFieldValue minmaxdomain_scalar write:

volFieldValue minmaxdomain_vector write:

volFieldValue mindomain_scalar write:
    min(region0) of p = -0.0056426814
    min(region0) of k = 2.8011598e-08
    min(region0) of epsilon = 6.103267e-08
    min(region0) of nut = 9.8062595e-13

volFieldValue mindomain_vector write:
    min(region0) of U = (0.029549651 -5.0342202e-06 -7.5166454e-18)

volFieldValue maxdomain_scalar write:
    max(region0) of p = 0.0092920037
    max(region0) of k = 0.0068353008
    max(region0) of epsilon = 321.31227
    max(region0) of nut = 7.751134e-07

volFieldValue maxdomain_vector write:
    max(region0) of U = (1.0032707 0.0051356339 7.0483405e-17)

Time = 43

DILUPBiCGStab:  Solving for Ux, Initial residual = 0.0037425947, Final residual = 4.1758669e-14, No Iterations 3
DILUPBiCGStab:  Solving for Uy, Initial residual = 0.00200319, Final residual = 2.9208743e-10, No Iterations 3
DICPCG:  Solving for p, Initial residual = 0.006712114, Final residual = 5.9390759e-05, No Iterations 85
DICPCG:  Solving for p, Initial residual = 5.7285025e-05, Final residual = 5.3806303e-07, No Iterations 45
DICPCG:  Solving for p, Initial residual = 5.3803832e-07, Final residual = 9.088335e-09, No Iterations 55
time step continuity errors : sum local = 3.5810916e-12, global = 3.8142108e-13, cumulative = -2.1296439e-12
DILUPBiCGStab:  Solving for epsilon, Initial residual = 0.017483167, Final residual = 1.9343869e-20, No Iterations 3
DILUPBiCGStab:  Solving for k, Initial residual = 0.015069792, Final residual = 1.4655391e-16, No Iterations 3
ExecutionTime = 3.96 s  ClockTime = 4 s

volFieldValue minmaxdomain_scalar write:

volFieldValue minmaxdomain_vector write:

volFieldValue mindomain_scalar write:
    min(region0) of p = -0.0058294946
    min(region0) of k = 2.7923342e-08
    min(region0) of epsilon = 5.909215e-08
    min(region0) of nut = 9.4436969e-13

volFieldValue mindomain_vector write:
    min(region0) of U = (0.0289765 -5.2954701e-06 -7.8225527e-18)

volFieldValue maxdomain_scalar write:
    max(region0) of p = 0.0095010799
    max(region0) of k = 0.0065809982
    max(region0) of epsilon = 305.6232
    max(region0) of nut = 8.0870339e-07

volFieldValue maxdomain_vector write:
    max(region0) of U = (1.0033645 0.0053145867 6.9157513e-17)

Time = 44

DILUPBiCGStab:  Solving for Ux, Initial residual = 0.0036486879, Final residual = 4.1950031e-14, No Iterations 3
DILUPBiCGStab:  Solving for Uy, Initial residual = 0.0019783825, Final residual = 2.9102251e-10, No Iterations 3
DICPCG:  Solving for p, Initial residual = 0.0066493655, Final residual = 5.8855749e-05, No Iterations 85
DICPCG:  Solving for p, Initial residual = 5.6758942e-05, Final residual = 5.2650236e-07, No Iterations 45
DICPCG:  Solving for p, Initial residual = 5.2647741e-07, Final residual = 9.4505199e-09, No Iterations 55
time step continuity errors : sum local = 3.8379871e-12, global = 4.5963857e-13, cumulative = -1.6700053e-12
DILUPBiCGStab:  Solving for epsilon, Initial residual = 0.017369328, Final residual = 1.9702586e-20, No Iterations 3
DILUPBiCGStab:  Solving for k, Initial residual = 0.014853086, Final residual = 1.4600076e-16, No Iterations 3
ExecutionTime = 4.04 s  ClockTime = 4 s

volFieldValue minmaxdomain_scalar write:

volFieldValue minmaxdomain_vector write:

volFieldValue mindomain_scalar write:
    min(region0) of p = -0.0060185457
    min(region0) of k = 2.7925923e-08
    min(region0) of epsilon = 5.7559165e-08
    min(region0) of nut = 9.1276946e-13

volFieldValue mindomain_vector write:
    min(region0) of U = (0.028423145 -5.5455479e-06 -8.1424843e-18)

volFieldValue maxdomain_scalar write:
    max(region0) of p = 0.0097156784
    max(region0) of k = 0.0063398888
    max(region0) of epsilon = 291.33863
    max(region0) of nut = 8.4307745e-07

volFieldValue maxdomain_vector write:
    max(region0) of U = (1.0034659 0.0054969754 6.7876301e-17)

Time = 45

DILUPBiCGStab:  Solving for Ux, Initial residual = 0.0035589114, Final residual = 4.2170391e-14, No Iterations 3
DILUPBiCGStab:  Solving for Uy, Initial residual = 0.0019555839, Final residual = 2.8989939e-10, No Iterations 3
DICPCG:  Solving for p, Initial residual = 0.0065729334, Final residual = 5.9432749e-05, No Iterations 85
DICPCG:  Solving for p, Initial residual = 5.7306118e-05, Final residual = 5.3059848e-07, No Iterations 45
DICPCG:  Solving for p, Initial residual = 5.3057586e-07, Final residual = 9.9961332e-09, No Iterations 55
time step continuity errors : sum local = 4.1841755e-12, global = 5.3590718e-13, cumulative = -1.1340981e-12
DILUPBiCGStab:  Solving for epsilon, Initial residual = 0.017255583, Final residual = 2.0069331e-20, No Iterations 3
DILUPBiCGStab:  Solving for k, Initial residual = 0.014649294, Final residual = 1.4585776e-16, No Iterations 3
ExecutionTime = 4.12 s  ClockTime = 4 s

volFieldValue minmaxdomain_scalar write:

volFieldValue minmaxdomain_vector write:

volFieldValue mindomain_scalar write:
    min(region0) of p = -0.0062097824
    min(region0) of k = 2.797669e-08
    min(region0) of epsilon = 5.6302999e-08
    min(region0) of nut = 8.8530333e-13

volFieldValue mindomain_vector write:
    min(region0) of U = (0.027888493 -5.7828499e-06 -8.4721178e-18)

volFieldValue maxdomain_scalar write:
    max(region0) of p = 0.0099356189
    max(region0) of k = 0.0061110597
    max(region0) of epsilon = 277.84564
    max(region0) of nut = 8.7824144e-07

volFieldValue maxdomain_vector write:
    max(region0) of U = (1.0035697 0.0056848968 6.6637417e-17)

Time = 46

DILUPBiCGStab:  Solving for Ux, Initial residual = 0.0034728325, Final residual = 4.2490121e-14, No Iterations 3
DILUPBiCGStab:  Solving for Uy, Initial residual = 0.001934822, Final residual = 2.8873738e-10, No Iterations 3
DICPCG:  Solving for p, Initial residual = 0.0065073955, Final residual = 5.907794e-05, No Iterations 85
DICPCG:  Solving for p, Initial residual = 5.695742e-05, Final residual = 5.2339366e-07, No Iterations 45
DICPCG:  Solving for p, Initial residual = 5.2336942e-07, Final residual = 8.5845788e-09, No Iterations 56
time step continuity errors : sum local = 3.7036529e-12, global = 6.3573375e-13, cumulative = -4.9836439e-13
DILUPBiCGStab:  Solving for epsilon, Initial residual = 0.017142254, Final residual = 2.0425751e-20, No Iterations 3
DILUPBiCGStab:  Solving for k, Initial residual = 0.014476953, Final residual = 1.4612973e-16, No Iterations 3
ExecutionTime = 4.2 s  ClockTime = 4 s

volFieldValue minmaxdomain_scalar write:

volFieldValue minmaxdomain_vector write:

volFieldValue mindomain_scalar write:
    min(region0) of p = -0.0064029844
    min(region0) of k = 2.804001e-08
    min(region0) of epsilon = 5.5219845e-08
    min(region0) of nut = 8.4365406e-13

volFieldValue mindomain_vector write:
    min(region0) of U = (0.027371534 -6.0057229e-06 -8.815221e-18)

volFieldValue maxdomain_scalar write:
    max(region0) of p = 0.010160854
    max(region0) of k = 0.0058936779
    max(region0) of epsilon = 265.09488
    max(region0) of nut = 9.142011e-07

volFieldValue maxdomain_vector write:
    max(region0) of U = (1.0036731 0.0058764362 6.5438681e-17)

Time = 47

DILUPBiCGStab:  Solving for Ux, Initial residual = 0.0033902601, Final residual = 4.2935921e-14, No Iterations 3
DILUPBiCGStab:  Solving for Uy, Initial residual = 0.0019160426, Final residual = 2.8745907e-10, No Iterations 3
DICPCG:  Solving for p, Initial residual = 0.0064432334, Final residual = 5.8500763e-05, No Iterations 85
DICPCG:  Solving for p, Initial residual = 5.639586e-05, Final residual = 5.108753e-07, No Iterations 45
DICPCG:  Solving for p, Initial residual = 5.1085468e-07, Final residual = 9.2150449e-09, No Iterations 56
time step continuity errors : sum local = 4.0977488e-12, global = 7.1673645e-13, cumulative = 2.1837205e-13
DILUPBiCGStab:  Solving for epsilon, Initial residual = 0.017029604, Final residual = 2.0746381e-20, No Iterations 3
DILUPBiCGStab:  Solving for k, Initial residual = 0.014308927, Final residual = 1.4673815e-16, No Iterations 3
ExecutionTime = 4.28 s  ClockTime = 4 s

volFieldValue minmaxdomain_scalar write:

volFieldValue minmaxdomain_vector write:

volFieldValue mindomain_scalar write:
    min(region0) of p = -0.0065979537
    min(region0) of k = 2.8087891e-08
    min(region0) of epsilon = 5.4231184e-08
    min(region0) of nut = 7.9688153e-13

volFieldValue mindomain_vector write:
    min(region0) of U = (0.026871336 -6.2125167e-06 -9.1723295e-18)

volFieldValue maxdomain_scalar write:
    max(region0) of p = 0.010391381
    max(region0) of k = 0.005686982
    max(region0) of epsilon = 253.04018
    max(region0) of nut = 9.5096203e-07

volFieldValue maxdomain_vector write:
    max(region0) of U = (1.0037765 0.0060713252 6.4278065e-17)

Time = 48

DILUPBiCGStab:  Solving for Ux, Initial residual = 0.0033109914, Final residual = 4.3556114e-14, No Iterations 3
DILUPBiCGStab:  Solving for Uy, Initial residual = 0.001899024, Final residual = 2.8584067e-10, No Iterations 3
DICPCG:  Solving for p, Initial residual = 0.0063588236, Final residual = 5.5300575e-05, No Iterations 85
DICPCG:  Solving for p, Initial residual = 5.3308534e-05, Final residual = 5.2507426e-07, No Iterations 44
DICPCG:  Solving for p, Initial residual = 5.250543e-07, Final residual = 8.7841159e-09, No Iterations 70
time step continuity errors : sum local = 4.0258501e-12, global = 2.2994427e-13, cumulative = 4.4831633e-13
DILUPBiCGStab:  Solving for epsilon, Initial residual = 0.016917816, Final residual = 2.1041879e-20, No Iterations 3
DILUPBiCGStab:  Solving for k, Initial residual = 0.01414515, Final residual = 1.4785123e-16, No Iterations 3
ExecutionTime = 4.36 s  ClockTime = 4 s

volFieldValue minmaxdomain_scalar write:

volFieldValue minmaxdomain_vector write:

volFieldValue mindomain_scalar write:
    min(region0) of p = -0.0067944513
    min(region0) of k = 2.810006e-08
    min(region0) of epsilon = 5.3281179e-08
    min(region0) of nut = 7.5530487e-13

volFieldValue mindomain_vector write:
    min(region0) of U = (0.026387034 -6.4015724e-06 -9.5422288e-18)

volFieldValue maxdomain_scalar write:
    max(region0) of p = 0.010627077
    max(region0) of k = 0.0054902745
    max(region0) of epsilon = 241.63833
    max(region0) of nut = 9.8852969e-07

volFieldValue maxdomain_vector write:
    max(region0) of U = (1.0038798 0.0062694882 6.3153683e-17)

Time = 49

DILUPBiCGStab:  Solving for Ux, Initial residual = 0.003234927, Final residual = 4.4346129e-14, No Iterations 3
DILUPBiCGStab:  Solving for Uy, Initial residual = 0.0018835425, Final residual = 2.8370072e-10, No Iterations 3
[...]
    min(region0) of k = 1.8477077e-10
    min(region0) of epsilon = 1.0675872e-08
    min(region0) of nut = 5.7956536e-15

volFieldValue mindomain_vector write:
    min(region0) of U = (6.2044649e-05 3.3897622e-12 -9.1729763e-17)

volFieldValue maxdomain_scalar write:
    max(region0) of p = 0.082562834
    max(region0) of k = 0.00014990996
    max(region0) of epsilon = 0.029568983
    max(region0) of nut = 0.00042411574

volFieldValue maxdomain_vector write:
    max(region0) of U = (1.0113394 0.056680051 6.3729026e-17)

Time = 1995

DILUPBiCGStab:  Solving for Ux, Initial residual = 6.818977e-08, Final residual = 8.5737996e-17, No Iterations 3
DILUPBiCGStab:  Solving for Uy, Initial residual = 5.78793e-07, Final residual = 4.6807935e-15, No Iterations 3
DICPCG:  Solving for p, Initial residual = 2.1114352e-06, Final residual = 1.7134801e-08, No Iterations 76
DICPCG:  Solving for p, Initial residual = 1.7135076e-08, Final residual = 9.1966847e-09, No Iterations 3
DICPCG:  Solving for p, Initial residual = 9.1966842e-09, Final residual = 6.4188676e-09, No Iterations 3
time step continuity errors : sum local = 1.5913102e-10, global = -6.3465379e-12, cumulative = -1.6594644e-08
DILUPBiCGStab:  Solving for epsilon, Initial residual = 6.7531927e-05, Final residual = 2.2089621e-18, No Iterations 3
DILUPBiCGStab:  Solving for k, Initial residual = 1.7252316e-05, Final residual = 1.9581548e-17, No Iterations 3
ExecutionTime = 125.15 s  ClockTime = 125 s

volFieldValue minmaxdomain_scalar write:

volFieldValue minmaxdomain_vector write:

volFieldValue mindomain_scalar write:
    min(region0) of p = -0.00039491583
    min(region0) of k = 1.8522321e-10
    min(region0) of epsilon = 1.0690314e-08
    min(region0) of nut = 5.8190605e-15

volFieldValue mindomain_vector write:
    min(region0) of U = (6.2044382e-05 3.389771e-12 -9.1729456e-17)

volFieldValue maxdomain_scalar write:
    max(region0) of p = 0.082562301
    max(region0) of k = 0.00014991
    max(region0) of epsilon = 0.029568311
    max(region0) of nut = 0.00042434819

volFieldValue maxdomain_vector write:
    max(region0) of U = (1.0113393 0.056679865 6.372878e-17)

Time = 1996

DILUPBiCGStab:  Solving for Ux, Initial residual = 6.8159334e-08, Final residual = 8.5697702e-17, No Iterations 3
DILUPBiCGStab:  Solving for Uy, Initial residual = 5.7868178e-07, Final residual = 4.6800922e-15, No Iterations 3
DICPCG:  Solving for p, Initial residual = 2.1109223e-06, Final residual = 1.7132983e-08, No Iterations 76
DICPCG:  Solving for p, Initial residual = 1.7133258e-08, Final residual = 9.185357e-09, No Iterations 3
DICPCG:  Solving for p, Initial residual = 9.1853574e-09, Final residual = 6.4339964e-09, No Iterations 3
time step continuity errors : sum local = 1.595019e-10, global = -6.3404536e-12, cumulative = -1.6600985e-08
DILUPBiCGStab:  Solving for epsilon, Initial residual = 6.7528509e-05, Final residual = 2.2084941e-18, No Iterations 3
DILUPBiCGStab:  Solving for k, Initial residual = 1.72454e-05, Final residual = 1.957024e-17, No Iterations 3
ExecutionTime = 125.2 s  ClockTime = 125 s

volFieldValue minmaxdomain_scalar write:

volFieldValue minmaxdomain_vector write:

volFieldValue mindomain_scalar write:
    min(region0) of p = -0.00039491812
    min(region0) of k = 1.8567526e-10
    min(region0) of epsilon = 1.0704736e-08
    min(region0) of nut = 5.8424696e-15

volFieldValue mindomain_vector write:
    min(region0) of U = (6.2044116e-05 3.3897798e-12 -9.1729149e-17)

volFieldValue maxdomain_scalar write:
    max(region0) of p = 0.082561768
    max(region0) of k = 0.00014991005
    max(region0) of epsilon = 0.029567639
    max(region0) of nut = 0.00042458064

volFieldValue maxdomain_vector write:
    max(region0) of U = (1.0113391 0.056679678 6.3728534e-17)

Time = 1997

DILUPBiCGStab:  Solving for Ux, Initial residual = 6.812901e-08, Final residual = 8.5657665e-17, No Iterations 3
DILUPBiCGStab:  Solving for Uy, Initial residual = 5.7856778e-07, Final residual = 4.6794101e-15, No Iterations 3
DICPCG:  Solving for p, Initial residual = 2.1103677e-06, Final residual = 1.7133605e-08, No Iterations 76
DICPCG:  Solving for p, Initial residual = 1.7133882e-08, Final residual = 9.190136e-09, No Iterations 3
DICPCG:  Solving for p, Initial residual = 9.1901363e-09, Final residual = 6.421103e-09, No Iterations 3
time step continuity errors : sum local = 1.5917807e-10, global = -6.3381987e-12, cumulative = -1.6607323e-08
DILUPBiCGStab:  Solving for epsilon, Initial residual = 6.7525094e-05, Final residual = 2.2080249e-18, No Iterations 3
DILUPBiCGStab:  Solving for k, Initial residual = 1.723849e-05, Final residual = 1.9558938e-17, No Iterations 3
ExecutionTime = 125.26 s  ClockTime = 125 s

volFieldValue minmaxdomain_scalar write:

volFieldValue minmaxdomain_vector write:

volFieldValue mindomain_scalar write:
    min(region0) of p = -0.00039492042
    min(region0) of k = 1.861269e-10
    min(region0) of epsilon = 1.0719138e-08
    min(region0) of nut = 5.8658805e-15

volFieldValue mindomain_vector write:
    min(region0) of U = (6.2043852e-05 3.3897885e-12 -9.1728843e-17)

volFieldValue maxdomain_scalar write:
    max(region0) of p = 0.082561235
    max(region0) of k = 0.00014991009
    max(region0) of epsilon = 0.029566967
    max(region0) of nut = 0.00042481309

volFieldValue maxdomain_vector write:
    max(region0) of U = (1.011339 0.056679492 6.3728287e-17)

Time = 1998

DILUPBiCGStab:  Solving for Ux, Initial residual = 6.8098806e-08, Final residual = 8.5617905e-17, No Iterations 3
DILUPBiCGStab:  Solving for Uy, Initial residual = 5.7846146e-07, Final residual = 4.6787446e-15, No Iterations 3
DICPCG:  Solving for p, Initial residual = 2.1098559e-06, Final residual = 1.7131872e-08, No Iterations 76
DICPCG:  Solving for p, Initial residual = 1.7132148e-08, Final residual = 9.1818204e-09, No Iterations 3
DICPCG:  Solving for p, Initial residual = 9.1818197e-09, Final residual = 6.4350907e-09, No Iterations 3
time step continuity errors : sum local = 1.5952061e-10, global = -6.3397464e-12, cumulative = -1.6613663e-08
DILUPBiCGStab:  Solving for epsilon, Initial residual = 6.7521681e-05, Final residual = 2.207556e-18, No Iterations 3
DILUPBiCGStab:  Solving for k, Initial residual = 1.7231586e-05, Final residual = 1.9547643e-17, No Iterations 3
ExecutionTime = 125.32 s  ClockTime = 125 s

volFieldValue minmaxdomain_scalar write:

volFieldValue minmaxdomain_vector write:

volFieldValue mindomain_scalar write:
    min(region0) of p = -0.00039492271
    min(region0) of k = 1.8657815e-10
    min(region0) of epsilon = 1.073352e-08
    min(region0) of nut = 5.889293e-15

volFieldValue mindomain_vector write:
    min(region0) of U = (6.2043589e-05 3.3897972e-12 -9.1728536e-17)

volFieldValue maxdomain_scalar write:
    max(region0) of p = 0.082560703
    max(region0) of k = 0.00014991014
    max(region0) of epsilon = 0.029566296
    max(region0) of nut = 0.00042504552

volFieldValue maxdomain_vector write:
    max(region0) of U = (1.0113389 0.056679306 6.3728041e-17)

Time = 1999

DILUPBiCGStab:  Solving for Ux, Initial residual = 6.8068717e-08, Final residual = 8.5578367e-17, No Iterations 3
DILUPBiCGStab:  Solving for Uy, Initial residual = 5.7833842e-07, Final residual = 4.6780888e-15, No Iterations 3
DICPCG:  Solving for p, Initial residual = 2.1092935e-06, Final residual = 1.7134413e-08, No Iterations 76
DICPCG:  Solving for p, Initial residual = 1.7134689e-08, Final residual = 9.1943428e-09, No Iterations 3
DICPCG:  Solving for p, Initial residual = 9.1943431e-09, Final residual = 6.4149548e-09, No Iterations 3
time step continuity errors : sum local = 1.5901738e-10, global = -6.3379272e-12, cumulative = -1.6620001e-08
DILUPBiCGStab:  Solving for epsilon, Initial residual = 6.7518271e-05, Final residual = 2.2070879e-18, No Iterations 3
DILUPBiCGStab:  Solving for k, Initial residual = 1.7224687e-05, Final residual = 1.9536352e-17, No Iterations 3
ExecutionTime = 125.37 s  ClockTime = 126 s

volFieldValue minmaxdomain_scalar write:

volFieldValue minmaxdomain_vector write:

volFieldValue mindomain_scalar write:
    min(region0) of p = -0.000394925
    min(region0) of k = 1.87029e-10
    min(region0) of epsilon = 1.0747883e-08
    min(region0) of nut = 5.9127067e-15

volFieldValue mindomain_vector write:
    min(region0) of U = (6.2043328e-05 3.3898058e-12 -9.1728229e-17)

volFieldValue maxdomain_scalar write:
    max(region0) of p = 0.08256017
    max(region0) of k = 0.00014991018
    max(region0) of epsilon = 0.029565624
    max(region0) of nut = 0.00042527796

volFieldValue maxdomain_vector write:
    max(region0) of U = (1.0113388 0.05667912 6.3727795e-17)

Time = 2000

DILUPBiCGStab:  Solving for Ux, Initial residual = 6.8038727e-08, Final residual = 8.5538908e-17, No Iterations 3
DILUPBiCGStab:  Solving for Uy, Initial residual = 5.7824169e-07, Final residual = 4.6774291e-15, No Iterations 3
DICPCG:  Solving for p, Initial residual = 2.1088078e-06, Final residual = 1.7133135e-08, No Iterations 76
DICPCG:  Solving for p, Initial residual = 1.7133411e-08, Final residual = 9.1889795e-09, No Iterations 3
DICPCG:  Solving for p, Initial residual = 9.1889799e-09, Final residual = 6.4181119e-09, No Iterations 3
time step continuity errors : sum local = 1.5909156e-10, global = -6.3315285e-12, cumulative = -1.6626332e-08
DILUPBiCGStab:  Solving for epsilon, Initial residual = 6.7514864e-05, Final residual = 2.2066217e-18, No Iterations 3
DILUPBiCGStab:  Solving for k, Initial residual = 1.7217793e-05, Final residual = 1.9525072e-17, No Iterations 3
ExecutionTime = 125.47 s  ClockTime = 126 s

volFieldValue minmaxdomain_scalar write:

volFieldValue minmaxdomain_vector write:

volFieldValue mindomain_scalar write:
    min(region0) of p = -0.00039492729
    min(region0) of k = 1.8747943e-10
    min(region0) of epsilon = 1.0762225e-08
    min(region0) of nut = 5.9361211e-15

volFieldValue mindomain_vector write:
    min(region0) of U = (6.2043068e-05 3.3898144e-12 -9.1727923e-17)

volFieldValue maxdomain_scalar write:
    max(region0) of p = 0.082559638
    max(region0) of k = 0.00014991023
    max(region0) of epsilon = 0.029564953
    max(region0) of nut = 0.00042551039

volFieldValue maxdomain_vector write:
    max(region0) of U = (1.0113387 0.056678935 6.3727548e-17)

End

/*---------------------------------------------------------------------------*\
| =========                 |                                                 |
| \\      /  F ield         | OpenFOAM: The Open Source CFD Toolbox           |
|  \\    /   O peration     | Version:  2206                                  |
|   \\  /    A nd           | Website:  www.openfoam.com                      |
|    \\/     M anipulation  |                                                 |
\*---------------------------------------------------------------------------*/
Build  : _da9441b0-20260127 OPENFOAM=2206 patch=260127 version=2206
Arch   : "LSB;label=32;scalar=64"
Exec   : simpleFoam -postProcess -func wallShearStress -latestTime
Date   : Jun 12 2026
Time   : 10:18:30
Host   : NotebookdoDan
PID    : 63996
I/O    : uncollated
Case   : /home/danilom/Trabalho_Modelagem_Turbulencia/GT2/RANS/KEpsilon_lowRE_V1
nProcs : 1
trapFpe: Floating point exception trapping enabled (FOAM_SIGFPE).
fileModificationChecking : Monitoring run-time modified files using timeStampMaster (fileModificationSkew 5, maxFileModificationPolls 20)
allowSystemOperations : Allowing user-supplied system call operations

// * * * * * * * * * * * * * * * * * * * * * * * * * * * * * * * * * * * * * //
Create time

--> FOAM Warning : 
    From static Foam::IOstreamOption::compressionType Foam::IOstreamOption::compressionEnum(const Foam::word&, compressionType)
    in file db/IOstreams/IOstreams/IOstreamOption.C at line 115
    Unknown compression specifier 'uncompressed', using compression off
Create mesh for time = 2000


SIMPLE: convergence criteria
    field p	 tolerance 1e-06
    field U	 tolerance 1e-06
    field "(k|omega|epsilon)"	 tolerance 1e-06

wallShearStress wallShearStress:
    processing all wall patches

Time = 2000
Reading field p

Reading field U

Reading/calculating face flux field phi

Selecting incompressible transport model Newtonian
Selecting turbulence model type RAS
Selecting RAS turbulence model LaunderSharmaKE
RAS
{
    RASModel        LaunderSharmaKE;
    turbulence      on;
    printCoeffs     on;
    Cmu             0.09;
    C1              1.44;
    C2              1.92;
    C3              0;
    sigmak          1;
    sigmaEps        1.3;
}

No MRF models present

No finite volume options present
wallShearStress wallShearStress write:
    writing field wallShearStress
    min/max(bottom) = (-0.046982532 -0.0024784523 -2.0753532e-16), (-0.00092848537 -2.5917458e-10 5.2318482e-18)

End

/*---------------------------------------------------------------------------*\
| =========                 |                                                 |
| \\      /  F ield         | OpenFOAM: The Open Source CFD Toolbox           |
|  \\    /   O peration     | Version:  2206                                  |
|   \\  /    A nd           | Website:  www.openfoam.com                      |
|    \\/     M anipulation  |                                                 |
\*---------------------------------------------------------------------------*/
Build  : _da9441b0-20260127 OPENFOAM=2206 patch=260127 version=2206
Arch   : "LSB;label=32;scalar=64"
Exec   : simpleFoam -postProcess -func yPlus -latestTime
Date   : Jun 12 2026
Time   : 10:18:30
Host   : NotebookdoDan
PID    : 63998
I/O    : uncollated
Case   : /home/danilom/Trabalho_Modelagem_Turbulencia/GT2/RANS/KEpsilon_lowRE_V1
nProcs : 1
trapFpe: Floating point exception trapping enabled (FOAM_SIGFPE).
fileModificationChecking : Monitoring run-time modified files using timeStampMaster (fileModificationSkew 5, maxFileModificationPolls 20)
allowSystemOperations : Allowing user-supplied system call operations

// * * * * * * * * * * * * * * * * * * * * * * * * * * * * * * * * * * * * * //
Create time

--> FOAM Warning : 
    From static Foam::IOstreamOption::compressionType Foam::IOstreamOption::compressionEnum(const Foam::word&, compressionType)
    in file db/IOstreams/IOstreams/IOstreamOption.C at line 115
    Unknown compression specifier 'uncompressed', using compression off
Create mesh for time = 2000


SIMPLE: convergence criteria
    field p	 tolerance 1e-06
    field U	 tolerance 1e-06
    field "(k|omega|epsilon)"	 tolerance 1e-06

Time = 2000
Reading field p

Reading field U

Reading/calculating face flux field phi

Selecting incompressible transport model Newtonian
Selecting turbulence model type RAS
Selecting RAS turbulence model LaunderSharmaKE
RAS
{
    RASModel        LaunderSharmaKE;
    turbulence      on;
    printCoeffs     on;
    Cmu             0.09;
    C1              1.44;
    C2              1.92;
    C3              0;
    sigmak          1;
    sigmaEps        1.3;
}

No MRF models present

No finite volume options present
yPlus yPlus write:
    writing field yPlus
    patch bottom y+ : min = 0.0020361311, max = 0.014489559, average = 0.0035388797

End

/*---------------------------------------------------------------------------*\
| =========                 |                                                 |
| \\      /  F ield         | OpenFOAM: The Open Source CFD Toolbox           |
|  \\    /   O peration     | Version:  2206                                  |
|   \\  /    A nd           | Website:  www.openfoam.com                      |
|    \\/     M anipulation  |                                                 |
\*---------------------------------------------------------------------------*/
Build  : _da9441b0-20260127 OPENFOAM=2206 patch=260127 version=2206
Arch   : "LSB;label=32;scalar=64"
Exec   : simpleFoam -postProcess -func sampleDict -latestTime
Date   : Jun 12 2026
Time   : 10:18:30
Host   : NotebookdoDan
PID    : 64000
I/O    : uncollated
Case   : /home/danilom/Trabalho_Modelagem_Turbulencia/GT2/RANS/KEpsilon_lowRE_V1
nProcs : 1
trapFpe: Floating point exception trapping enabled (FOAM_SIGFPE).
fileModificationChecking : Monitoring run-time modified files using timeStampMaster (fileModificationSkew 5, maxFileModificationPolls 20)
allowSystemOperations : Allowing user-supplied system call operations

// * * * * * * * * * * * * * * * * * * * * * * * * * * * * * * * * * * * * * //
Create time

--> FOAM Warning : 
    From static Foam::IOstreamOption::compressionType Foam::IOstreamOption::compressionEnum(const Foam::word&, compressionType)
    in file db/IOstreams/IOstreams/IOstreamOption.C at line 115
    Unknown compression specifier 'uncompressed', using compression off
Create mesh for time = 2000


SIMPLE: convergence criteria
    field p	 tolerance 1e-06
    field U	 tolerance 1e-06
    field "(k|omega|epsilon)"	 tolerance 1e-06

Sampled set:
    profile0 -> raw
    profile1 -> raw

Time = 2000
Reading field p

Reading field U

Reading/calculating face flux field phi

Selecting incompressible transport model Newtonian
Selecting turbulence model type RAS
Selecting RAS turbulence model LaunderSharmaKE
RAS
{
    RASModel        LaunderSharmaKE;
    turbulence      on;
    printCoeffs     on;
    Cmu             0.09;
    C1              1.44;
    C2              1.92;
    C3              0;
    sigmak          1;
    sigmaEps        1.3;
}

No MRF models present

No finite volume options present
--> FOAM Warning : 
    From Foam::IOobjectList Foam::sampledSets::preCheckFields(unsigned int)
    in file sampledSet/sampledSets/sampledSets.C at line 219
    
Cannot find registered field matching 1(wallShearStress)

End

/*---------------------------------------------------------------------------*\
| =========                 |                                                 |
| \\      /  F ield         | OpenFOAM: The Open Source CFD Toolbox           |
|  \\    /   O peration     | Version:  2206                                  |
|   \\  /    A nd           | Website:  www.openfoam.com                      |
|    \\/     M anipulation  |                                                 |
\*---------------------------------------------------------------------------*/
Build  : _da9441b0-20260127 OPENFOAM=2206 patch=260127 version=2206
Arch   : "LSB;label=32;scalar=64"
Exec   : simpleFoam -postProcess -func probesDict -latestTime
Date   : Jun 12 2026
Time   : 10:18:30
Host   : NotebookdoDan
PID    : 64008
I/O    : uncollated
Case   : /home/danilom/Trabalho_Modelagem_Turbulencia/GT2/RANS/KEpsilon_lowRE_V1
nProcs : 1
trapFpe: Floating point exception trapping enabled (FOAM_SIGFPE).
fileModificationChecking : Monitoring run-time modified files using timeStampMaster (fileModificationSkew 5, maxFileModificationPolls 20)
allowSystemOperations : Allowing user-supplied system call operations

// * * * * * * * * * * * * * * * * * * * * * * * * * * * * * * * * * * * * * //
Create time

--> FOAM Warning : 
    From static Foam::IOstreamOption::compressionType Foam::IOstreamOption::compressionEnum(const Foam::word&, compressionType)
    in file db/IOstreams/IOstreams/IOstreamOption.C at line 115
    Unknown compression specifier 'uncompressed', using compression off
Create mesh for time = 2000


SIMPLE: convergence criteria
    field p	 tolerance 1e-06
    field U	 tolerance 1e-06
    field "(k|omega|epsilon)"	 tolerance 1e-06

Time = 2000
Reading field p

Reading field U

Reading/calculating face flux field phi

Selecting incompressible transport model Newtonian
Selecting turbulence model type RAS
Selecting RAS turbulence model LaunderSharmaKE
RAS
{
    RASModel        LaunderSharmaKE;
    turbulence      on;
    printCoeffs     on;
    Cmu             0.09;
    C1              1.44;
    C2              1.92;
    C3              0;
    sigmak          1;
    sigmaEps        1.3;
}

No MRF models present

No finite volume options present

End

