/*---------------------------------------------------------------------------*\
| =========                 |                                                 |
| \\      /  F ield         | OpenFOAM: The Open Source CFD Toolbox           |
|  \\    /   O peration     | Version:  2206                                  |
|   \\  /    A nd           | Website:  www.openfoam.com                      |
|    \\/     M anipulation  |                                                 |
\*---------------------------------------------------------------------------*/
Build  : _da9441b0-20260127 OPENFOAM=2206 patch=260127 version=2206
Arch   : "LSB;label=32;scalar=64"
Exec   : simpleFoam
Date   : Jun 11 2026
Time   : 17:15:21
Host   : NotebookdoDan
PID    : 50259
I/O    : uncollated
Case   : /home/danilom/Trabalho_Modelagem_Turbulencia/GT2/RANS/KEpsilon_highRE_V1
nProcs : 1
trapFpe: Floating point exception trapping enabled (FOAM_SIGFPE).
fileModificationChecking : Monitoring run-time modified files using timeStampMaster (fileModificationSkew 5, maxFileModificationPolls 20)
allowSystemOperations : Allowing user-supplied system call operations

// * * * * * * * * * * * * * * * * * * * * * * * * * * * * * * * * * * * * * //
Create time

--> FOAM Warning : 
    From static Foam::IOstreamOption::compressionType Foam::IOstreamOption::compressionEnum(const Foam::word&, compressionType)
    in file db/IOstreams/IOstreams/IOstreamOption.C at line 115
    Unknown compression specifier 'uncompressed', using compression off
Create mesh for time = 0


SIMPLE: convergence criteria
    field p	 tolerance 1e-06
    field U	 tolerance 1e-06
    field "(k|omega|epsilon)"	 tolerance 1e-06

Reading field p

Reading field U

Reading/calculating face flux field phi

Selecting incompressible transport model Newtonian
Selecting turbulence model type RAS
Selecting RAS turbulence model kEpsilon
RAS
{
    RASModel        kEpsilon;
    turbulence      on;
    printCoeffs     on;
    Cmu             0.09;
    C1              1.44;
    C2              1.92;
    C3              0;
    sigmak          1;
    sigmaEps        1.3;
}

No MRF models present

No finite volume options present

Starting time loop

Time = 1

DILUPBiCGStab:  Solving for Ux, Initial residual = 1, Final residual = 5.6684962e-10, No Iterations 3
DILUPBiCGStab:  Solving for Uy, Initial residual = 0.99999878, Final residual = 4.2890108e-09, No Iterations 4
DICPCG:  Solving for p, Initial residual = 1, Final residual = 0.0094771432, No Iterations 84
DICPCG:  Solving for p, Initial residual = 4.3495304e-05, Final residual = 4.246531e-07, No Iterations 31
DICPCG:  Solving for p, Initial residual = 4.2467254e-07, Final residual = 8.7345901e-09, No Iterations 41
time step continuity errors : sum local = 4.923295e-10, global = -8.6059713e-11, cumulative = -8.6059713e-11
DILUPBiCGStab:  Solving for epsilon, Initial residual = 0.99822981, Final residual = 1.8413034e-16, No Iterations 3
DILUPBiCGStab:  Solving for k, Initial residual = 1, Final residual = 4.44343e-14, No Iterations 3
ExecutionTime = 0.07 s  ClockTime = 0 s

volFieldValue minmaxdomain_scalar write:

volFieldValue minmaxdomain_vector write:

volFieldValue mindomain_scalar write:
    min(region0) of p = 8.7678841e-05
    min(region0) of k = 8.8097973e-05
    min(region0) of epsilon = 0.0018376116
    min(region0) of nut = 1.3079844e-07

volFieldValue mindomain_vector write:
    min(region0) of U = (0.52571262 -4.2633497e-19 -2.5361604e-17)

volFieldValue maxdomain_scalar write:
    max(region0) of p = 0.030172092
    max(region0) of k = 0.010551998
    max(region0) of epsilon = 0.0091355529
    max(region0) of nut = 0.0054532843

volFieldValue maxdomain_vector write:
    max(region0) of U = (1.0016647 0.0092102152 5.2478951e-16)

Time = 2

DILUPBiCGStab:  Solving for Ux, Initial residual = 0.53130217, Final residual = 1.7669959e-10, No Iterations 3
DILUPBiCGStab:  Solving for Uy, Initial residual = 0.34482256, Final residual = 8.5050532e-10, No Iterations 4
DICPCG:  Solving for p, Initial residual = 0.049162364, Final residual = 0.00047808894, No Iterations 61
DICPCG:  Solving for p, Initial residual = 0.00058588638, Final residual = 4.9241437e-06, No Iterations 71
DICPCG:  Solving for p, Initial residual = 4.9276674e-06, Final residual = 3.9270865e-08, No Iterations 61
time step continuity errors : sum local = 1.3253109e-09, global = -7.2691003e-11, cumulative = -1.5875072e-10
DILUPBiCGStab:  Solving for epsilon, Initial residual = 0.1546506, Final residual = 1.596161e-17, No Iterations 3
DILUPBiCGStab:  Solving for k, Initial residual = 0.3151716, Final residual = 5.1190408e-14, No Iterations 3
ExecutionTime = 0.11 s  ClockTime = 0 s

volFieldValue minmaxdomain_scalar write:

volFieldValue minmaxdomain_vector write:

volFieldValue mindomain_scalar write:
    min(region0) of p = 6.2630363e-05
    min(region0) of k = 5.3227741e-05
    min(region0) of epsilon = 0.0028203392
    min(region0) of nut = 9.0357883e-08

volFieldValue mindomain_vector write:
    min(region0) of U = (0.64183968 -0.00016334787 -4.4285027e-16)

volFieldValue maxdomain_scalar write:
    max(region0) of p = 0.033378946
    max(region0) of k = 0.0083580138
    max(region0) of epsilon = 1.0842236
    max(region0) of nut = 2.9354115e-05

volFieldValue maxdomain_vector write:
    max(region0) of U = (1.002926 0.043252055 3.7969413e-16)

Time = 3

DILUPBiCGStab:  Solving for Ux, Initial residual = 0.068007244, Final residual = 4.2737626e-10, No Iterations 3
DILUPBiCGStab:  Solving for Uy, Initial residual = 0.12393186, Final residual = 2.4650109e-10, No Iterations 4
DICPCG:  Solving for p, Initial residual = 0.13737661, Final residual = 0.0012969833, No Iterations 52
DICPCG:  Solving for p, Initial residual = 0.0012293565, Final residual = 1.2141768e-05, No Iterations 71
DICPCG:  Solving for p, Initial residual = 1.2098945e-05, Final residual = 1.1038328e-07, No Iterations 68
time step continuity errors : sum local = 6.9530483e-09, global = -5.5302744e-10, cumulative = -7.1177816e-10
DILUPBiCGStab:  Solving for epsilon, Initial residual = 0.047265344, Final residual = 9.5664635e-17, No Iterations 3
DILUPBiCGStab:  Solving for k, Initial residual = 0.11312162, Final residual = 1.0882989e-14, No Iterations 3
ExecutionTime = 0.14 s  ClockTime = 0 s

volFieldValue minmaxdomain_scalar write:

volFieldValue minmaxdomain_vector write:

volFieldValue mindomain_scalar write:
    min(region0) of p = 7.1225611e-05
    min(region0) of k = 3.2661579e-05
    min(region0) of epsilon = 0.0015135765
    min(region0) of nut = 6.3432599e-08

volFieldValue mindomain_vector write:
    min(region0) of U = (0.36830312 -0.0073470686 -1.7043813e-15)

volFieldValue maxdomain_scalar write:
    max(region0) of p = 0.044485232
    max(region0) of k = 0.02378201
    max(region0) of epsilon = 0.76431338
    max(region0) of nut = 8.5781472e-05

volFieldValue maxdomain_vector write:
    max(region0) of U = (1.0046277 0.020658125 1.6087435e-15)

Time = 4

DILUPBiCGStab:  Solving for Ux, Initial residual = 0.026913977, Final residual = 2.9022398e-10, No Iterations 3
DILUPBiCGStab:  Solving for Uy, Initial residual = 0.11057154, Final residual = 7.8581465e-09, No Iterations 3
DICPCG:  Solving for p, Initial residual = 0.12507854, Final residual = 0.0011606873, No Iterations 24
DICPCG:  Solving for p, Initial residual = 0.0012627928, Final residual = 1.1921957e-05, No Iterations 77
DICPCG:  Solving for p, Initial residual = 1.2210944e-05, Final residual = 1.1103145e-07, No Iterations 37
time step continuity errors : sum local = 5.3428062e-09, global = -3.4160504e-10, cumulative = -1.0533832e-09
DILUPBiCGStab:  Solving for epsilon, Initial residual = 0.011644154, Final residual = 2.0848356e-17, No Iterations 3
DILUPBiCGStab:  Solving for k, Initial residual = 0.035817026, Final residual = 7.1616134e-15, No Iterations 3
ExecutionTime = 0.16 s  ClockTime = 0 s

volFieldValue minmaxdomain_scalar write:

volFieldValue minmaxdomain_vector write:

volFieldValue mindomain_scalar write:
    min(region0) of p = 5.9939118e-05
    min(region0) of k = 2.0329809e-05
    min(region0) of epsilon = 0.00081942726
    min(region0) of nut = 4.5394027e-08

volFieldValue mindomain_vector write:
    min(region0) of U = (0.31278358 -0.0058951514 -5.0806654e-16)

volFieldValue maxdomain_scalar write:
    max(region0) of p = 0.049797264
    max(region0) of k = 0.033074794
    max(region0) of epsilon = 3.6685097
    max(region0) of nut = 3.2793585e-05

volFieldValue maxdomain_vector write:
    max(region0) of U = (1.0057741 0.025986339 2.720965e-16)

Time = 5

DILUPBiCGStab:  Solving for Ux, Initial residual = 0.01933545, Final residual = 2.2308369e-10, No Iterations 3
DILUPBiCGStab:  Solving for Uy, Initial residual = 0.079364198, Final residual = 1.4765351e-09, No Iterations 3
DICPCG:  Solving for p, Initial residual = 0.084623982, Final residual = 0.00083253101, No Iterations 52
DICPCG:  Solving for p, Initial residual = 0.00098452915, Final residual = 8.8702948e-06, No Iterations 74
DICPCG:  Solving for p, Initial residual = 8.919931e-06, Final residual = 8.7586376e-08, No Iterations 35
time step continuity errors : sum local = 3.7532687e-09, global = 4.3971913e-10, cumulative = -6.1366407e-10
DILUPBiCGStab:  Solving for epsilon, Initial residual = 0.0036685736, Final residual = 1.5889842e-17, No Iterations 3
DILUPBiCGStab:  Solving for k, Initial residual = 0.012908976, Final residual = 3.6770645e-15, No Iterations 3
ExecutionTime = 0.19 s  ClockTime = 0 s

volFieldValue minmaxdomain_scalar write:

volFieldValue minmaxdomain_vector write:

volFieldValue mindomain_scalar write:
    min(region0) of p = 3.6482268e-05
    min(region0) of k = 1.2921403e-05
    min(region0) of epsilon = 0.00044829703
    min(region0) of nut = 3.3519381e-08

volFieldValue mindomain_vector write:
    min(region0) of U = (0.23200106 -0.0038443186 -2.4589047e-19)

volFieldValue maxdomain_scalar write:
    max(region0) of p = 0.052721612
    max(region0) of k = 0.044464444
    max(region0) of epsilon = 6.0167581
    max(region0) of nut = 2.9656281e-05

volFieldValue maxdomain_vector write:
    max(region0) of U = (1.0066944 0.029824712 3.9114053e-16)

Time = 6

DILUPBiCGStab:  Solving for Ux, Initial residual = 0.012732236, Final residual = 1.5614123e-10, No Iterations 3
DILUPBiCGStab:  Solving for Uy, Initial residual = 0.057840552, Final residual = 9.5745705e-10, No Iterations 3
DICPCG:  Solving for p, Initial residual = 0.058687178, Final residual = 0.00057860582, No Iterations 53
DICPCG:  Solving for p, Initial residual = 0.00070433579, Final residual = 6.1124904e-06, No Iterations 65
DICPCG:  Solving for p, Initial residual = 6.1224504e-06, Final residual = 5.9552281e-08, No Iterations 50
time step continuity errors : sum local = 2.1824446e-09, global = 2.8945217e-11, cumulative = -5.8471885e-10
DILUPBiCGStab:  Solving for epsilon, Initial residual = 0.0022316126, Final residual = 1.5972723e-17, No Iterations 3
DILUPBiCGStab:  Solving for k, Initial residual = 0.012330761, Final residual = 5.5850948e-15, No Iterations 3
ExecutionTime = 0.22 s  ClockTime = 0 s

volFieldValue minmaxdomain_scalar write:

volFieldValue minmaxdomain_vector write:

volFieldValue mindomain_scalar write:
    min(region0) of p = 1.889497e-05
    min(region0) of k = 8.4093701e-06
    min(region0) of epsilon = 0.0002483659
    min(region0) of nut = 2.5625802e-08

volFieldValue mindomain_vector write:
    min(region0) of U = (0.18637583 -0.0016065899 -2.7672164e-19)

volFieldValue maxdomain_scalar write:
    max(region0) of p = 0.053316139
    max(region0) of k = 0.052929588
    max(region0) of epsilon = 9.3785595
    max(region0) of nut = 2.6884589e-05

volFieldValue maxdomain_vector write:
    max(region0) of U = (1.007334 0.032598372 3.8189885e-16)

Time = 7

DILUPBiCGStab:  Solving for Ux, Initial residual = 0.0091263992, Final residual = 1.3836997e-10, No Iterations 3
DILUPBiCGStab:  Solving for Uy, Initial residual = 0.044204046, Final residual = 5.7665329e-10, No Iterations 3
DICPCG:  Solving for p, Initial residual = 0.048415171, Final residual = 0.00039857765, No Iterations 58
DICPCG:  Solving for p, Initial residual = 0.00047143911, Final residual = 4.4606086e-06, No Iterations 66
DICPCG:  Solving for p, Initial residual = 4.463673e-06, Final residual = 4.2048681e-08, No Iterations 63
time step continuity errors : sum local = 1.3683196e-09, global = 1.7920701e-10, cumulative = -4.0551184e-10
DILUPBiCGStab:  Solving for epsilon, Initial residual = 0.0017916296, Final residual = 1.6139907e-17, No Iterations 3
DILUPBiCGStab:  Solving for k, Initial residual = 0.012025677, Final residual = 7.7334621e-15, No Iterations 3
ExecutionTime = 0.25 s  ClockTime = 0 s

volFieldValue minmaxdomain_scalar write:

volFieldValue minmaxdomain_vector write:

volFieldValue mindomain_scalar write:
    min(region0) of p = 7.9792294e-06
    min(region0) of k = 5.6206315e-06
    min(region0) of epsilon = 0.00013970767
    min(region0) of nut = 2.0351315e-08

volFieldValue mindomain_vector write:
    min(region0) of U = (0.15770198 -0.00050483539 -3.0140317e-19)

volFieldValue maxdomain_scalar write:
    max(region0) of p = 0.053466237
    max(region0) of k = 0.058831807
    max(region0) of epsilon = 12.180486
    max(region0) of nut = 2.5574213e-05

volFieldValue maxdomain_vector write:
    max(region0) of U = (1.0077803 0.034390921 4.5671737e-16)

Time = 8

DILUPBiCGStab:  Solving for Ux, Initial residual = 0.0069714006, Final residual = 3.2324964e-10, No Iterations 3
DILUPBiCGStab:  Solving for Uy, Initial residual = 0.035953673, Final residual = 4.3599257e-10, No Iterations 3
DICPCG:  Solving for p, Initial residual = 0.04124901, Final residual = 0.00039116881, No Iterations 59
DICPCG:  Solving for p, Initial residual = 0.00043915587, Final residual = 4.3528382e-06, No Iterations 71
DICPCG:  Solving for p, Initial residual = 4.3584145e-06, Final residual = 4.0700536e-08, No Iterations 57
time step continuity errors : sum local = 1.2269526e-09, global = 6.180829e-11, cumulative = -3.4370355e-10
DILUPBiCGStab:  Solving for epsilon, Initial residual = 0.0019440495, Final residual = 2.072349e-17, No Iterations 3
DILUPBiCGStab:  Solving for k, Initial residual = 0.011420519, Final residual = 1.0953686e-14, No Iterations 3
ExecutionTime = 0.28 s  ClockTime = 0 s

volFieldValue minmaxdomain_scalar write:

volFieldValue minmaxdomain_vector write:

volFieldValue mindomain_scalar write:
    min(region0) of p = 8.3822911e-07
    min(region0) of k = 3.8698588e-06
    min(region0) of epsilon = 8.0042734e-05
    min(region0) of nut = 1.6838789e-08

volFieldValue mindomain_vector write:
    min(region0) of U = (0.13863696 -0.00013794059 -4.1541019e-17)

volFieldValue maxdomain_scalar write:
    max(region0) of p = 0.053604121
    max(region0) of k = 0.062768797
    max(region0) of epsilon = 14.273653
    max(region0) of nut = 2.4842483e-05

volFieldValue maxdomain_vector write:
    max(region0) of U = (1.0082075 0.035640705 5.0502802e-16)

Time = 9

DILUPBiCGStab:  Solving for Ux, Initial residual = 0.0056378446, Final residual = 1.2277245e-10, No Iterations 3
DILUPBiCGStab:  Solving for Uy, Initial residual = 0.03078956, Final residual = 3.6048535e-10, No Iterations 3
DICPCG:  Solving for p, Initial residual = 0.035102036, Final residual = 0.00030746709, No Iterations 59
DICPCG:  Solving for p, Initial residual = 0.00033346785, Final residual = 2.3404139e-06, No Iterations 72
DICPCG:  Solving for p, Initial residual = 2.3430105e-06, Final residual = 2.0981472e-08, No Iterations 28
time step continuity errors : sum local = 5.959924e-10, global = 7.1552614e-11, cumulative = -2.7215094e-10
DILUPBiCGStab:  Solving for epsilon, Initial residual = 0.0020780079, Final residual = 2.9552714e-17, No Iterations 3
DILUPBiCGStab:  Solving for k, Initial residual = 0.010423634, Final residual = 1.3819008e-14, No Iterations 3
ExecutionTime = 0.31 s  ClockTime = 0 s

volFieldValue minmaxdomain_scalar write:

volFieldValue minmaxdomain_vector write:

volFieldValue mindomain_scalar write:
    min(region0) of p = -5.3986901e-06
    min(region0) of k = 2.7525566e-06
    min(region0) of epsilon = 4.6883263e-05
    min(region0) of nut = 1.4544447e-08

volFieldValue mindomain_vector write:
    min(region0) of U = (0.12513789 -0.00010569434 -7.3253853e-18)

volFieldValue maxdomain_scalar write:
    max(region0) of p = 0.053754838
    max(region0) of k = 0.065320068
    max(region0) of epsilon = 15.730139
    max(region0) of nut = 2.4411992e-05

volFieldValue maxdomain_vector write:
    max(region0) of U = (1.0085794 0.036550931 5.3122222e-16)

Time = 10

DILUPBiCGStab:  Solving for Ux, Initial residual = 0.0047557367, Final residual = 1.0190719e-10, No Iterations 3
DILUPBiCGStab:  Solving for Uy, Initial residual = 0.027117053, Final residual = 3.0093942e-10, No Iterations 3
DICPCG:  Solving for p, Initial residual = 0.028663883, Final residual = 0.00025235858, No Iterations 58
DICPCG:  Solving for p, Initial residual = 0.0002701978, Final residual = 2.4617934e-06, No Iterations 66
DICPCG:  Solving for p, Initial residual = 2.4636153e-06, Final residual = 2.3940626e-08, No Iterations 59
time step continuity errors : sum local = 6.4331478e-10, global = 6.5094285e-11, cumulative = -2.0705666e-10
DILUPBiCGStab:  Solving for epsilon, Initial residual = 0.0020915037, Final residual = 4.7105942e-17, No Iterations 3
DILUPBiCGStab:  Solving for k, Initial residual = 0.0093191986, Final residual = 1.7992635e-14, No Iterations 3
ExecutionTime = 0.34 s  ClockTime = 0 s

volFieldValue minmaxdomain_scalar write:

volFieldValue minmaxdomain_vector write:

volFieldValue mindomain_scalar write:
    min(region0) of p = -1.1829931e-05
    min(region0) of k = 2.0273192e-06
    min(region0) of epsilon = 2.8193257e-05
    min(region0) of nut = 1.3120232e-08

volFieldValue mindomain_vector write:
    min(region0) of U = (0.11507235 -8.9663223e-05 -4.7745985e-17)

volFieldValue maxdomain_scalar write:
    max(region0) of p = 0.053872382
    max(region0) of k = 0.066933554
    max(region0) of epsilon = 16.698858
    max(region0) of nut = 2.4145906e-05

volFieldValue maxdomain_vector write:
    max(region0) of U = (1.0088995 0.037222773 5.4758311e-16)

Time = 11

DILUPBiCGStab:  Solving for Ux, Initial residual = 0.0041203155, Final residual = 9.4192588e-11, No Iterations 3
DILUPBiCGStab:  Solving for Uy, Initial residual = 0.024202742, Final residual = 2.5665971e-10, No Iterations 3
DICPCG:  Solving for p, Initial residual = 0.023307614, Final residual = 0.0002059083, No Iterations 57
DICPCG:  Solving for p, Initial residual = 0.00021955965, Final residual = 2.0616284e-06, No Iterations 65
DICPCG:  Solving for p, Initial residual = 2.0625571e-06, Final residual = 1.9373189e-08, No Iterations 60
time step continuity errors : sum local = 4.9363286e-10, global = 6.2679069e-11, cumulative = -1.4437759e-10
DILUPBiCGStab:  Solving for epsilon, Initial residual = 0.001997456, Final residual = 7.3044689e-17, No Iterations 3
DILUPBiCGStab:  Solving for k, Initial residual = 0.0082620098, Final residual = 2.375605e-14, No Iterations 3
ExecutionTime = 0.37 s  ClockTime = 0 s

volFieldValue minmaxdomain_scalar write:

volFieldValue minmaxdomain_vector write:

volFieldValue mindomain_scalar write:
    min(region0) of p = -1.8809943e-05
    min(region0) of k = 1.5483411e-06
    min(region0) of epsilon = 1.7484493e-05
    min(region0) of nut = 1.2340215e-08

volFieldValue mindomain_vector write:
    min(region0) of U = (0.10725692 -6.0569296e-05 -1.0220949e-18)

volFieldValue maxdomain_scalar write:
    max(region0) of p = 0.053951979
    max(region0) of k = 0.067928936
    max(region0) of epsilon = 17.321387
    max(region0) of nut = 2.3975599e-05

volFieldValue maxdomain_vector write:
    max(region0) of U = (1.0092035 0.037713492 5.5900808e-16)

Time = 12

DILUPBiCGStab:  Solving for Ux, Initial residual = 0.0036348202, Final residual = 9.0311307e-11, No Iterations 3
DILUPBiCGStab:  Solving for Uy, Initial residual = 0.021737118, Final residual = 2.2542236e-10, No Iterations 3
DICPCG:  Solving for p, Initial residual = 0.01887138, Final residual = 0.00016144822, No Iterations 57
DICPCG:  Solving for p, Initial residual = 0.00017143211, Final residual = 1.520055e-06, No Iterations 63
DICPCG:  Solving for p, Initial residual = 1.5205741e-06, Final residual = 1.2795599e-08, No Iterations 59
time step continuity errors : sum local = 3.1068271e-10, global = 3.6059379e-11, cumulative = -1.0831821e-10
DILUPBiCGStab:  Solving for epsilon, Initial residual = 0.0018435967, Final residual = 1.0035439e-16, No Iterations 3
DILUPBiCGStab:  Solving for k, Initial residual = 0.0073254757, Final residual = 4.2356474e-14, No Iterations 3
ExecutionTime = 0.39 s  ClockTime = 0 s

volFieldValue minmaxdomain_scalar write:

volFieldValue minmaxdomain_vector write:

volFieldValue mindomain_scalar write:
    min(region0) of p = -2.5770798e-05
    min(region0) of k = 1.2264358e-06
    min(region0) of epsilon = 1.1230724e-05
    min(region0) of nut = 1.2053811e-08

volFieldValue mindomain_vector write:
    min(region0) of U = (0.10099398 -3.2094775e-05 -2.680783e-18)

volFieldValue maxdomain_scalar write:
    max(region0) of p = 0.054000343
    max(region0) of k = 0.068524928
    max(region0) of epsilon = 17.709205
    max(region0) of nut = 2.3863857e-05

volFieldValue maxdomain_vector write:
    max(region0) of U = (1.0094747 0.038032497 5.673262e-16)

Time = 13

DILUPBiCGStab:  Solving for Ux, Initial residual = 0.0032527372, Final residual = 8.844861e-11, No Iterations 3
DILUPBiCGStab:  Solving for Uy, Initial residual = 0.019647865, Final residual = 2.0112668e-10, No Iterations 3
DICPCG:  Solving for p, Initial residual = 0.015232786, Final residual = 0.00014970514, No Iterations 57
DICPCG:  Solving for p, Initial residual = 0.00015795428, Final residual = 1.3161678e-06, No Iterations 68
DICPCG:  Solving for p, Initial residual = 1.3166753e-06, Final residual = 1.1869505e-08, No Iterations 60
time step continuity errors : sum local = 2.7643265e-10, global = 1.9485415e-11, cumulative = -8.8832792e-11
DILUPBiCGStab:  Solving for epsilon, Initial residual = 0.0016680491, Final residual = 1.3243821e-16, No Iterations 3
DILUPBiCGStab:  Solving for k, Initial residual = 0.0065232292, Final residual = 7.3404439e-14, No Iterations 3
ExecutionTime = 0.42 s  ClockTime = 0 s

volFieldValue minmaxdomain_scalar write:

volFieldValue minmaxdomain_vector write:

volFieldValue mindomain_scalar write:
    min(region0) of p = -3.2529295e-05
    min(region0) of k = 1.0063343e-06
    min(region0) of epsilon = 7.4977542e-06
    min(region0) of nut = 1.2156144e-08

volFieldValue mindomain_vector write:
    min(region0) of U = (0.095849615 -1.6814549e-05 -7.9547563e-17)

volFieldValue maxdomain_scalar write:
    max(region0) of p = 0.054030349
    max(region0) of k = 0.068867351
    max(region0) of epsilon = 17.94278
    max(region0) of nut = 2.3789184e-05

volFieldValue maxdomain_vector write:
    max(region0) of U = (1.009702 0.038215447 5.7334424e-16)

Time = 14

DILUPBiCGStab:  Solving for Ux, Initial residual = 0.002945919, Final residual = 8.7696573e-11, No Iterations 3
DILUPBiCGStab:  Solving for Uy, Initial residual = 0.017871336, Final residual = 1.8202358e-10, No Iterations 3
DICPCG:  Solving for p, Initial residual = 0.012312387, Final residual = 9.2300558e-05, No Iterations 59
DICPCG:  Solving for p, Initial residual = 9.6742325e-05, Final residual = 8.649316e-07, No Iterations 70
DICPCG:  Solving for p, Initial residual = 8.6522726e-07, Final residual = 8.9959047e-09, No Iterations 58
time step continuity errors : sum local = 2.0214479e-10, global = 9.7750713e-12, cumulative = -7.9057721e-11
DILUPBiCGStab:  Solving for epsilon, Initial residual = 0.0015033065, Final residual = 1.7417625e-16, No Iterations 3
DILUPBiCGStab:  Solving for k, Initial residual = 0.0058540785, Final residual = 4.372708e-14, No Iterations 3
ExecutionTime = 0.45 s  ClockTime = 0 s

volFieldValue minmaxdomain_scalar write:

volFieldValue minmaxdomain_vector write:

volFieldValue mindomain_scalar write:
    min(region0) of p = -3.9078281e-05
    min(region0) of k = 8.5333844e-07
    min(region0) of epsilon = 5.2136673e-06
    min(region0) of nut = 1.2570189e-08

volFieldValue mindomain_vector write:
    min(region0) of U = (0.091541929 -8.9023263e-06 -2.2238393e-17)

volFieldValue maxdomain_scalar write:
    max(region0) of p = 0.054052066
    max(region0) of k = 0.069051822
    max(region0) of epsilon = 18.077439
    max(region0) of nut = 2.3738643e-05

volFieldValue maxdomain_vector write:
    max(region0) of U = (1.0099403 0.038337451 5.7767866e-16)

Time = 15

DILUPBiCGStab:  Solving for Ux, Initial residual = 0.0026947464, Final residual = 8.756208e-11, No Iterations 3
DILUPBiCGStab:  Solving for Uy, Initial residual = 0.016346261, Final residual = 1.6699788e-10, No Iterations 3
DICPCG:  Solving for p, Initial residual = 0.010034554, Final residual = 9.0585697e-05, No Iterations 59
DICPCG:  Solving for p, Initial residual = 9.4391369e-05, Final residual = 9.4254629e-07, No Iterations 73
DICPCG:  Solving for p, Initial residual = 9.4286195e-07, Final residual = 8.8537313e-09, No Iterations 63
time step continuity errors : sum local = 1.9287217e-10, global = 1.110305e-11, cumulative = -6.7954671e-11
DILUPBiCGStab:  Solving for epsilon, Initial residual = 0.0013556522, Final residual = 2.3483518e-16, No Iterations 3
DILUPBiCGStab:  Solving for k, Initial residual = 0.0053017816, Final residual = 3.9587998e-14, No Iterations 3
ExecutionTime = 0.48 s  ClockTime = 0 s

volFieldValue minmaxdomain_scalar write:

volFieldValue minmaxdomain_vector write:

volFieldValue mindomain_scalar write:
    min(region0) of p = -4.5453324e-05
    min(region0) of k = 7.4538288e-07
    min(region0) of epsilon = 3.7775481e-06
    min(region0) of nut = 1.3237054e-08

volFieldValue mindomain_vector write:
    min(region0) of U = (0.087881214 -3.7340024e-06 -8.2327647e-18)

volFieldValue maxdomain_scalar write:
    max(region0) of p = 0.054066075
    max(region0) of k = 0.06914001
    max(region0) of epsilon = 18.150122
    max(region0) of nut = 2.3704011e-05

volFieldValue maxdomain_vector write:
    max(region0) of U = (1.0102429 0.03842165 5.8076713e-16)

Time = 16

DILUPBiCGStab:  Solving for Ux, Initial residual = 0.0024854122, Final residual = 8.7673499e-11, No Iterations 3
DILUPBiCGStab:  Solving for Uy, Initial residual = 0.015035702, Final residual = 1.5396056e-10, No Iterations 3
DICPCG:  Solving for p, Initial residual = 0.0083122832, Final residual = 8.0032674e-05, No Iterations 60
DICPCG:  Solving for p, Initial residual = 8.3005253e-05, Final residual = 8.0807173e-07, No Iterations 67
DICPCG:  Solving for p, Initial residual = 8.0826576e-07, Final residual = 8.7050157e-09, No Iterations 54
time step continuity errors : sum local = 1.8453277e-10, global = 2.4922881e-11, cumulative = -4.303179e-11
DILUPBiCGStab:  Solving for epsilon, Initial residual = 0.0012267838, Final residual = 5.1805501e-16, No Iterations 3
DILUPBiCGStab:  Solving for k, Initial residual = 0.0048466582, Final residual = 3.6610143e-14, No Iterations 3
ExecutionTime = 0.51 s  ClockTime = 0 s

volFieldValue minmaxdomain_scalar write:

volFieldValue minmaxdomain_vector write:

volFieldValue mindomain_scalar write:
    min(region0) of p = -5.1675402e-05
    min(region0) of k = 6.6824982e-07
    min(region0) of epsilon = 2.8481056e-06
    min(region0) of nut = 1.4111206e-08

volFieldValue mindomain_vector write:
    min(region0) of U = (0.08473581 -6.1215183e-07 -1.7422888e-18)

volFieldValue maxdomain_scalar write:
    max(region0) of p = 0.054074617
    max(region0) of k = 0.069171081
    max(region0) of epsilon = 18.184903
    max(region0) of nut = 2.3679942e-05

volFieldValue maxdomain_vector write:
    max(region0) of U = (1.010527 0.038479808 5.8296135e-16)

Time = 17

DILUPBiCGStab:  Solving for Ux, Initial residual = 0.0023078124, Final residual = 8.7714516e-11, No Iterations 3
DILUPBiCGStab:  Solving for Uy, Initial residual = 0.013891249, Final residual = 1.4293108e-10, No Iterations 3
DICPCG:  Solving for p, Initial residual = 0.0069949463, Final residual = 6.4967384e-05, No Iterations 61
DICPCG:  Solving for p, Initial residual = 6.7113105e-05, Final residual = 4.8427481e-07, No Iterations 67
DICPCG:  Solving for p, Initial residual = 4.8435328e-07, Final residual = 8.4950311e-09, No Iterations 52
time step continuity errors : sum local = 1.7580144e-10, global = 1.4567642e-11, cumulative = -2.8464148e-11
DILUPBiCGStab:  Solving for epsilon, Initial residual = 0.0011145331, Final residual = 1.5904403e-15, No Iterations 3
DILUPBiCGStab:  Solving for k, Initial residual = 0.0044757286, Final residual = 3.5590665e-14, No Iterations 3
ExecutionTime = 0.54 s  ClockTime = 0 s

volFieldValue minmaxdomain_scalar write:

volFieldValue minmaxdomain_vector write:

volFieldValue mindomain_scalar write:
    min(region0) of p = -5.7792028e-05
    min(region0) of k = 6.1264725e-07
    min(region0) of epsilon = 2.2285549e-06
    min(region0) of nut = 1.5157939e-08

volFieldValue mindomain_vector write:
    min(region0) of U = (0.082011616 3.4728849e-07 -3.7512847e-17)

volFieldValue maxdomain_scalar write:
    max(region0) of p = 0.054078436
    max(region0) of k = 0.069169561
    max(region0) of epsilon = 18.197163
    max(region0) of nut = 2.3662949e-05

volFieldValue maxdomain_vector write:
    max(region0) of U = (1.0107971 0.038520094 5.8451945e-16)

Time = 18

DILUPBiCGStab:  Solving for Ux, Initial residual = 0.0021549154, Final residual = 8.7507514e-11, No Iterations 3
DILUPBiCGStab:  Solving for Uy, Initial residual = 0.012880892, Final residual = 1.3343435e-10, No Iterations 3
DICPCG:  Solving for p, Initial residual = 0.0059600108, Final residual = 5.6092735e-05, No Iterations 62
DICPCG:  Solving for p, Initial residual = 5.7734595e-05, Final residual = 5.3856292e-07, No Iterations 66
DICPCG:  Solving for p, Initial residual = 5.3860731e-07, Final residual = 9.9767822e-09, No Iterations 50
time step continuity errors : sum local = 2.0217018e-10, global = 1.303876e-11, cumulative = -1.5425389e-11
DILUPBiCGStab:  Solving for epsilon, Initial residual = 0.0010181339, Final residual = 5.3038859e-16, No Iterations 3
DILUPBiCGStab:  Solving for k, Initial residual = 0.0041698245, Final residual = 2.8104873e-14, No Iterations 3
ExecutionTime = 0.56 s  ClockTime = 0 s

volFieldValue minmaxdomain_scalar write:

volFieldValue minmaxdomain_vector write:

volFieldValue mindomain_scalar write:
    min(region0) of p = -6.3804825e-05
    min(region0) of k = 5.7240552e-07
    min(region0) of epsilon = 1.8034115e-06
    min(region0) of nut = 1.6351414e-08

volFieldValue mindomain_vector write:
    min(region0) of U = (0.079639392 6.0989196e-07 -2.816173e-17)

volFieldValue maxdomain_scalar write:
    max(region0) of p = 0.054082415
    max(region0) of k = 0.069150569
    max(region0) of epsilon = 18.196563
    max(region0) of nut = 2.3650736e-05

volFieldValue maxdomain_vector write:
    max(region0) of U = (1.0110229 0.038548604 5.8562496e-16)

Time = 19

DILUPBiCGStab:  Solving for Ux, Initial residual = 0.0020223033, Final residual = 8.7211959e-11, No Iterations 3
DILUPBiCGStab:  Solving for Uy, Initial residual = 0.011985345, Final residual = 1.2515317e-10, No Iterations 3
DICPCG:  Solving for p, Initial residual = 0.0051374977, Final residual = 4.8875789e-05, No Iterations 62
DICPCG:  Solving for p, Initial residual = 5.0127088e-05, Final residual = 4.9496759e-07, No Iterations 49
DICPCG:  Solving for p, Initial residual = 4.949826e-07, Final residual = 9.2714747e-09, No Iterations 68
time step continuity errors : sum local = 1.8451172e-10, global = -6.1571154e-12, cumulative = -2.1582504e-11
DILUPBiCGStab:  Solving for epsilon, Initial residual = 0.00093510831, Final residual = 4.9785283e-16, No Iterations 3
DILUPBiCGStab:  Solving for k, Initial residual = 0.0039184478, Final residual = 2.6220606e-14, No Iterations 3
ExecutionTime = 0.59 s  ClockTime = 0 s

volFieldValue minmaxdomain_scalar write:

volFieldValue minmaxdomain_vector write:

volFieldValue mindomain_scalar write:
    min(region0) of p = -0.00016852221
    min(region0) of k = 5.4335596e-07
    min(region0) of epsilon = 1.5035149e-06
    min(region0) of nut = 1.767273e-08

volFieldValue mindomain_vector write:
    min(region0) of U = (0.077566757 7.5948229e-07 -9.7962113e-18)

volFieldValue maxdomain_scalar write:
    max(region0) of p = 0.054088132
    max(region0) of k = 0.06912328
    max(region0) of epsilon = 18.189069
    max(region0) of nut = 2.364181e-05

volFieldValue maxdomain_vector write:
    max(region0) of U = (1.0112051 0.038569686 5.8640605e-16)

Time = 20

DILUPBiCGStab:  Solving for Ux, Initial residual = 0.0019059622, Final residual = 8.6591392e-11, No Iterations 3
DILUPBiCGStab:  Solving for Uy, Initial residual = 0.011189251, Final residual = 1.1792984e-10, No Iterations 3
DICPCG:  Solving for p, Initial residual = 0.0044985307, Final residual = 4.0425211e-05, No Iterations 68
DICPCG:  Solving for p, Initial residual = 4.1316202e-05, Final residual = 3.7651628e-07, No Iterations 64
DICPCG:  Solving for p, Initial residual = 3.7651967e-07, Final residual = 8.0898062e-09, No Iterations 58
time step continuity errors : sum local = 1.5854536e-10, global = -1.5720253e-11, cumulative = -3.7302757e-11
DILUPBiCGStab:  Solving for epsilon, Initial residual = 0.00086337282, Final residual = 5.1289776e-16, No Iterations 3
DILUPBiCGStab:  Solving for k, Initial residual = 0.0037144559, Final residual = 2.4428786e-14, No Iterations 3
ExecutionTime = 0.63 s  ClockTime = 1 s

volFieldValue minmaxdomain_scalar write:

volFieldValue minmaxdomain_vector write:

volFieldValue mindomain_scalar write:
    min(region0) of p = -0.00039350832
    min(region0) of k = 5.226288e-07
    min(region0) of epsilon = 1.2865051e-06
    min(region0) of nut = 1.9108107e-08

volFieldValue mindomain_vector write:
    min(region0) of U = (0.075753046 8.6195202e-07 -2.4026461e-18)

volFieldValue maxdomain_scalar write:
    max(region0) of p = 0.054099251
    max(region0) of k = 0.069093134
    max(region0) of epsilon = 18.178303
    max(region0) of nut = 2.3635182e-05

volFieldValue maxdomain_vector write:
    max(region0) of U = (1.0114349 0.038586248 5.8695622e-16)

Time = 21

DILUPBiCGStab:  Solving for Ux, Initial residual = 0.001803048, Final residual = 8.5604892e-11, No Iterations 3
DILUPBiCGStab:  Solving for Uy, Initial residual = 0.010477242, Final residual = 1.1163083e-10, No Iterations 3
DICPCG:  Solving for p, Initial residual = 0.0040010488, Final residual = 3.4436127e-05, No Iterations 71
DICPCG:  Solving for p, Initial residual = 3.5077327e-05, Final residual = 3.1319598e-07, No Iterations 42
DICPCG:  Solving for p, Initial residual = 3.1319464e-07, Final residual = 9.855282e-09, No Iterations 53
time step continuity errors : sum local = 1.907098e-10, global = -2.3795422e-12, cumulative = -3.9682299e-11
DILUPBiCGStab:  Solving for epsilon, Initial residual = 0.00080098195, Final residual = 5.3215322e-16, No Iterations 3
DILUPBiCGStab:  Solving for k, Initial residual = 0.0035451983, Final residual = 2.1954789e-14, No Iterations 3
ExecutionTime = 0.65 s  ClockTime = 1 s

volFieldValue minmaxdomain_scalar write:

volFieldValue minmaxdomain_vector write:

volFieldValue mindomain_scalar write:
    min(region0) of p = -0.00059701239
    min(region0) of k = 5.0821038e-07
    min(region0) of epsilon = 1.12581e-06
    min(region0) of nut = 2.0647357e-08

volFieldValue mindomain_vector write:
    min(region0) of U = (0.074165931 9.3036441e-07 -3.5688473e-18)

volFieldValue maxdomain_scalar write:
    max(region0) of p = 0.054116581
    max(region0) of k = 0.069063247
    max(region0) of epsilon = 18.166413
    max(region0) of nut = 2.3630196e-05

volFieldValue maxdomain_vector write:
    max(region0) of U = (1.0116344 0.038600038 5.8734099e-16)

Time = 22

DILUPBiCGStab:  Solving for Ux, Initial residual = 0.0017114603, Final residual = 8.4342454e-11, No Iterations 3
DILUPBiCGStab:  Solving for Uy, Initial residual = 0.0098397967, Final residual = 1.0614843e-10, No Iterations 3
DICPCG:  Solving for p, Initial residual = 0.0035931902, Final residual = 3.0840851e-05, No Iterations 73
DICPCG:  Solving for p, Initial residual = 3.131331e-05, Final residual = 2.9795859e-07, No Iterations 43
DICPCG:  Solving for p, Initial residual = 2.9796541e-07, Final residual = 9.695049e-09, No Iterations 62
time step continuity errors : sum local = 1.8569372e-10, global = -1.0311377e-11, cumulative = -4.9993676e-11
DILUPBiCGStab:  Solving for epsilon, Initial residual = 0.00074632915, Final residual = 5.4726735e-16, No Iterations 3
DILUPBiCGStab:  Solving for k, Initial residual = 0.0034039012, Final residual = 1.880608e-14, No Iterations 3
ExecutionTime = 0.68 s  ClockTime = 1 s

volFieldValue minmaxdomain_scalar write:

volFieldValue minmaxdomain_vector write:

volFieldValue mindomain_scalar write:
    min(region0) of p = -0.00072793648
    min(region0) of k = 4.9866072e-07
    min(region0) of epsilon = 1.0043488e-06
    min(region0) of nut = 2.2171633e-08

volFieldValue mindomain_vector write:
    min(region0) of U = (0.072779199 1.1326088e-06 -1.3138979e-17)

volFieldValue maxdomain_scalar write:
    max(region0) of p = 0.054141204
    max(region0) of k = 0.069035302
    max(region0) of epsilon = 18.154627
    max(region0) of nut = 2.3626404e-05

volFieldValue maxdomain_vector write:
    max(region0) of U = (1.0118179 0.038611791 5.8760794e-16)

Time = 23

DILUPBiCGStab:  Solving for Ux, Initial residual = 0.0016293285, Final residual = 8.2781412e-11, No Iterations 3
DILUPBiCGStab:  Solving for Uy, Initial residual = 0.0092704066, Final residual = 1.015535e-10, No Iterations 3
DICPCG:  Solving for p, Initial residual = 0.0032601566, Final residual = 3.2108238e-05, No Iterations 75
DICPCG:  Solving for p, Initial residual = 3.2501723e-05, Final residual = 3.0744524e-07, No Iterations 70
DICPCG:  Solving for p, Initial residual = 3.0746248e-07, Final residual = 9.9471837e-09, No Iterations 65
time step continuity errors : sum local = 1.8899945e-10, global = 4.9499144e-12, cumulative = -4.5043762e-11
DILUPBiCGStab:  Solving for epsilon, Initial residual = 0.00069817771, Final residual = 5.667281e-16, No Iterations 3
DILUPBiCGStab:  Solving for k, Initial residual = 0.0032854693, Final residual = 1.5120272e-14, No Iterations 3
ExecutionTime = 0.71 s  ClockTime = 1 s

volFieldValue minmaxdomain_scalar write:

volFieldValue minmaxdomain_vector write:

volFieldValue mindomain_scalar write:
    min(region0) of p = -0.00084475689
    min(region0) of k = 4.9293093e-07
    min(region0) of epsilon = 9.1087335e-07
    min(region0) of nut = 2.3477727e-08

volFieldValue mindomain_vector write:
    min(region0) of U = (0.071571177 9.0695583e-07 -9.5374359e-18)

volFieldValue maxdomain_scalar write:
    max(region0) of p = 0.054173856
    max(region0) of k = 0.069010094
    max(region0) of epsilon = 18.143609
    max(region0) of nut = 2.362349e-05

volFieldValue maxdomain_vector write:
    max(region0) of U = (1.0119547 0.038622029 5.8779114e-16)

Time = 24

DILUPBiCGStab:  Solving for Ux, Initial residual = 0.0015553568, Final residual = 8.098398e-11, No Iterations 3
DILUPBiCGStab:  Solving for Uy, Initial residual = 0.0087669178, Final residual = 9.7883748e-11, No Iterations 3
DICPCG:  Solving for p, Initial residual = 0.002989769, Final residual = 2.8977818e-05, No Iterations 79
DICPCG:  Solving for p, Initial residual = 2.9251471e-05, Final residual = 2.7583089e-07, No Iterations 43
DICPCG:  Solving for p, Initial residual = 2.7583427e-07, Final residual = 9.2559044e-09, No Iterations 61
time step continuity errors : sum local = 1.748301e-10, global = -3.6550048e-12, cumulative = -4.8698767e-11
DILUPBiCGStab:  Solving for epsilon, Initial residual = 0.00065560725, Final residual = 5.9365842e-16, No Iterations 3
DILUPBiCGStab:  Solving for k, Initial residual = 0.0031850993, Final residual = 1.1947741e-14, No Iterations 3
ExecutionTime = 0.74 s  ClockTime = 1 s

volFieldValue minmaxdomain_scalar write:

volFieldValue minmaxdomain_vector write:

volFieldValue mindomain_scalar write:
    min(region0) of p = -0.00093036645
    min(region0) of k = 4.9024322e-07
    min(region0) of epsilon = 8.3780077e-07
    min(region0) of nut = 2.4336247e-08

volFieldValue mindomain_vector write:
    min(region0) of U = (0.070523532 9.4721806e-07 -1.4188682e-17)

volFieldValue maxdomain_scalar write:
    max(region0) of p = 0.054213277
    max(region0) of k = 0.068987901
    max(region0) of epsilon = 18.133672
    max(region0) of nut = 2.3621235e-05

volFieldValue maxdomain_vector write:
    max(region0) of U = (1.012079 0.038630943 5.8791417e-16)

Time = 25

DILUPBiCGStab:  Solving for Ux, Initial residual = 0.0014885942, Final residual = 7.912329e-11, No Iterations 3
DILUPBiCGStab:  Solving for Uy, Initial residual = 0.0083200144, Final residual = 9.4996961e-11, No Iterations 3
DICPCG:  Solving for p, Initial residual = 0.0027873465, Final residual = 2.6003137e-05, No Iterations 79
DICPCG:  Solving for p, Initial residual = 2.6176505e-05, Final residual = 2.2956223e-07, No Iterations 67
DICPCG:  Solving for p, Initial residual = 2.2956748e-07, Final residual = 7.9165192e-09, No Iterations 61
time step continuity errors : sum local = 1.4896587e-10, global = 9.1737942e-12, cumulative = -3.9524972e-11
DILUPBiCGStab:  Solving for epsilon, Initial residual = 0.00061758369, Final residual = 6.15993e-16, No Iterations 3
DILUPBiCGStab:  Solving for k, Initial residual = 0.0030991112, Final residual = 1.0867385e-14, No Iterations 3
ExecutionTime = 0.77 s  ClockTime = 1 s

volFieldValue minmaxdomain_scalar write:

volFieldValue minmaxdomain_vector write:

volFieldValue mindomain_scalar write:
    min(region0) of p = -0.00096926679
    min(region0) of k = 4.9001067e-07
    min(region0) of epsilon = 7.7990383e-07
    min(region0) of nut = 2.5018806e-08

volFieldValue mindomain_vector write:
    min(region0) of U = (0.06962055 1.0056631e-06 -2.7409536e-17)

volFieldValue maxdomain_scalar write:
    max(region0) of p = 0.054260478
    max(region0) of k = 0.06896869
    max(region0) of epsilon = 18.124926
    max(region0) of nut = 2.3619474e-05

volFieldValue maxdomain_vector write:
    max(region0) of U = (1.0122192 0.038638614 5.8799444e-16)

Time = 26

DILUPBiCGStab:  Solving for Ux, Initial residual = 0.0014281392, Final residual = 7.7217833e-11, No Iterations 3
DILUPBiCGStab:  Solving for Uy, Initial residual = 0.0079190143, Final residual = 9.2817715e-11, No Iterations 3
DICPCG:  Solving for p, Initial residual = 0.002631922, Final residual = 2.5075102e-05, No Iterations 78
DICPCG:  Solving for p, Initial residual = 2.5180078e-05, Final residual = 2.1294502e-07, No Iterations 67
DICPCG:  Solving for p, Initial residual = 2.1295311e-07, Final residual = 8.7917243e-09, No Iterations 61
time step continuity errors : sum local = 1.6509022e-10, global = 1.3246988e-11, cumulative = -2.6277985e-11
DILUPBiCGStab:  Solving for epsilon, Initial residual = 0.00058374187, Final residual = 6.2444043e-16, No Iterations 3
DILUPBiCGStab:  Solving for k, Initial residual = 0.0030250674, Final residual = 1.0637667e-14, No Iterations 3
ExecutionTime = 0.8 s  ClockTime = 1 s

volFieldValue minmaxdomain_scalar write:

volFieldValue minmaxdomain_vector write:

volFieldValue mindomain_scalar write:
    min(region0) of p = -0.0010079485
    min(region0) of k = 4.9178282e-07
    min(region0) of epsilon = 7.3350239e-07
    min(region0) of nut = 2.4925029e-08

volFieldValue mindomain_vector write:
    min(region0) of U = (0.068848517 1.035944e-06 -1.9363576e-17)

volFieldValue maxdomain_scalar write:
    max(region0) of p = 0.054314292
    max(region0) of k = 0.068952264
    max(region0) of epsilon = 18.117355
    max(region0) of nut = 2.361809e-05

volFieldValue maxdomain_vector write:
    max(region0) of U = (1.0123462 0.038645098 5.8804305e-16)

Time = 27

DILUPBiCGStab:  Solving for Ux, Initial residual = 0.0013729548, Final residual = 7.5270327e-11, No Iterations 3
DILUPBiCGStab:  Solving for Uy, Initial residual = 0.0075489525, Final residual = 9.1079439e-11, No Iterations 3
DICPCG:  Solving for p, Initial residual = 0.002489771, Final residual = 2.1437668e-05, No Iterations 78
DICPCG:  Solving for p, Initial residual = 2.1483395e-05, Final residual = 2.0311417e-07, No Iterations 66
DICPCG:  Solving for p, Initial residual = 2.0312348e-07, Final residual = 9.7992475e-09, No Iterations 36
time step continuity errors : sum local = 1.8387698e-10, global = 2.7564928e-11, cumulative = 1.286943e-12
DILUPBiCGStab:  Solving for epsilon, Initial residual = 0.00055431671, Final residual = 6.1804382e-16, No Iterations 3
DILUPBiCGStab:  Solving for k, Initial residual = 0.0029617855, Final residual = 1.0535242e-14, No Iterations 3
ExecutionTime = 0.83 s  ClockTime = 1 s

volFieldValue minmaxdomain_scalar write:

volFieldValue minmaxdomain_vector write:

volFieldValue mindomain_scalar write:
    min(region0) of p = -0.0010142258
    min(region0) of k = 4.9520811e-07
    min(region0) of epsilon = 6.959539e-07
    min(region0) of nut = 2.5782962e-08

volFieldValue mindomain_vector write:
    min(region0) of U = (0.068195298 1.0479955e-06 -1.2509585e-18)

volFieldValue maxdomain_scalar write:
    max(region0) of p = 0.054373714
    max(region0) of k = 0.068938352
    max(region0) of epsilon = 18.110883
    max(region0) of nut = 2.3616996e-05

volFieldValue maxdomain_vector write:
    max(region0) of U = (1.0124499 0.038650463 5.8806839e-16)

Time = 28

DILUPBiCGStab:  Solving for Ux, Initial residual = 0.0013223533, Final residual = 7.3401301e-11, No Iterations 3
DILUPBiCGStab:  Solving for Uy, Initial residual = 0.0072033119, Final residual = 8.9793099e-11, No Iterations 3
DICPCG:  Solving for p, Initial residual = 0.0023723776, Final residual = 2.2815865e-05, No Iterations 54
DICPCG:  Solving for p, Initial residual = 2.2807344e-05, Final residual = 2.2724845e-07, No Iterations 68
DICPCG:  Solving for p, Initial residual = 2.273746e-07, Final residual = 9.16288e-09, No Iterations 36
time step continuity errors : sum local = 1.7205832e-10, global = 9.8255678e-13, cumulative = 2.2694998e-12
DILUPBiCGStab:  Solving for epsilon, Initial residual = 0.0005295552, Final residual = 6.0808429e-16, No Iterations 3
DILUPBiCGStab:  Solving for k, Initial residual = 0.0029189866, Final residual = 1.0583454e-14, No Iterations 3
ExecutionTime = 0.86 s  ClockTime = 1 s

volFieldValue minmaxdomain_scalar write:

volFieldValue minmaxdomain_vector write:

volFieldValue mindomain_scalar write:
    min(region0) of p = -0.00098857607
    min(region0) of k = 5.0000772e-07
    min(region0) of epsilon = 6.6532556e-07
    min(region0) of nut = 2.7735732e-08

volFieldValue mindomain_vector write:
    min(region0) of U = (0.067650005 1.0518949e-06 -1.3244139e-18)

volFieldValue maxdomain_scalar write:
    max(region0) of p = 0.054439355
    max(region0) of k = 0.068926651
    max(region0) of epsilon = 18.105402
    max(region0) of nut = 2.3616127e-05

volFieldValue maxdomain_vector write:
    max(region0) of U = (1.0125324 0.038654812 5.8807699e-16)

Time = 29

DILUPBiCGStab:  Solving for Ux, Initial residual = 0.0012759041, Final residual = 7.1608533e-11, No Iterations 3
DILUPBiCGStab:  Solving for Uy, Initial residual = 0.0068775135, Final residual = 8.9306656e-11, No Iterations 3
DICPCG:  Solving for p, Initial residual = 0.0022704617, Final residual = 2.059437e-05, No Iterations 54
DICPCG:  Solving for p, Initial residual = 2.0570567e-05, Final residual = 2.0200117e-07, No Iterations 72
DICPCG:  Solving for p, Initial residual = 2.0190296e-07, Final residual = 9.7189464e-09, No Iterations 33
time step continuity errors : sum local = 1.8285859e-10, global = -1.7271056e-11, cumulative = -1.5001557e-11
DILUPBiCGStab:  Solving for epsilon, Initial residual = 0.00050905867, Final residual = 6.1109326e-16, No Iterations 3
DILUPBiCGStab:  Solving for k, Initial residual = 0.0028878016, Final residual = 1.09212e-14, No Iterations 3
ExecutionTime = 0.88 s  ClockTime = 1 s

volFieldValue minmaxdomain_scalar write:

volFieldValue minmaxdomain_vector write:

volFieldValue mindomain_scalar write:
    min(region0) of p = -0.00096571348
    min(region0) of k = 5.0595704e-07
    min(region0) of epsilon = 6.4017929e-07
    min(region0) of nut = 3.0895421e-08

volFieldValue mindomain_vector write:
    min(region0) of U = (0.067202754 1.0521651e-06 -6.8436923e-19)

volFieldValue maxdomain_scalar write:
    max(region0) of p = 0.054510136
    max(region0) of k = 0.068916864
    max(region0) of epsilon = 18.100793
    max(region0) of nut = 2.3615433e-05

volFieldValue maxdomain_vector write:
    max(region0) of U = (1.0126081 0.038658255 5.8807264e-16)

Time = 30

DILUPBiCGStab:  Solving for Ux, Initial residual = 0.0012331674, Final residual = 6.9955304e-11, No Iterations 3
DILUPBiCGStab:  Solving for Uy, Initial residual = 0.0065635451, Final residual = 8.9289769e-11, No Iterations 3
DICPCG:  Solving for p, Initial residual = 0.0021866803, Final residual = 1.7344149e-05, No Iterations 77
DICPCG:  Solving for p, Initial residual = 1.7287523e-05, Final residual = 1.6662445e-07, No Iterations 59
DICPCG:  Solving for p, Initial residual = 1.6662123e-07, Final residual = 8.7553286e-09, No Iterations 56
time step continuity errors : sum local = 1.6523837e-10, global = -2.9402052e-12, cumulative = -1.7941762e-11
DILUPBiCGStab:  Solving for epsilon, Initial residual = 0.0004911435, Final residual = 6.4198341e-16, No Iterations 3
DILUPBiCGStab:  Solving for k, Initial residual = 0.0028627173, Final residual = 1.1621528e-14, No Iterations 3
ExecutionTime = 0.91 s  ClockTime = 1 s

volFieldValue minmaxdomain_scalar write:

volFieldValue minmaxdomain_vector write:

volFieldValue mindomain_scalar write:
    min(region0) of p = -0.00092401828
    min(region0) of k = 5.1287242e-07
    min(region0) of epsilon = 6.1942806e-07
    min(region0) of nut = 3.5543482e-08

volFieldValue mindomain_vector write:
    min(region0) of U = (0.066844487 1.0515119e-06 -1.1923356e-17)

volFieldValue maxdomain_scalar write:
    max(region0) of p = 0.054585425
    max(region0) of k = 0.068908713
    max(region0) of epsilon = 18.096938
    max(region0) of nut = 2.3614877e-05

volFieldValue maxdomain_vector write:
    max(region0) of U = (1.012698 0.038660902 5.8805824e-16)

Time = 31

DILUPBiCGStab:  Solving for Ux, Initial residual = 0.0011939177, Final residual = 6.8496231e-11, No Iterations 3
DILUPBiCGStab:  Solving for Uy, Initial residual = 0.006263595, Final residual = 8.9597434e-11, No Iterations 3
DICPCG:  Solving for p, Initial residual = 0.0021290505, Final residual = 1.6339132e-05, No Iterations 77
DICPCG:  Solving for p, Initial residual = 1.6259596e-05, Final residual = 1.5391828e-07, No Iterations 58
DICPCG:  Solving for p, Initial residual = 1.5391697e-07, Final residual = 9.0312963e-09, No Iterations 55
time step continuity errors : sum local = 1.7116605e-10, global = 2.038608e-12, cumulative = -1.5903154e-11
DILUPBiCGStab:  Solving for epsilon, Initial residual = 0.00047482966, Final residual = 7.0482197e-16, No Iterations 3
DILUPBiCGStab:  Solving for k, Initial residual = 0.0028383033, Final residual = 1.2744765e-14, No Iterations 3
ExecutionTime = 0.94 s  ClockTime = 1 s

volFieldValue minmaxdomain_scalar write:

volFieldValue minmaxdomain_vector write:

volFieldValue mindomain_scalar write:
    min(region0) of p = -0.00086022459
    min(region0) of k = 5.2060159e-07
    min(region0) of epsilon = 6.0223803e-07
    min(region0) of nut = 4.0502825e-08

volFieldValue mindomain_vector write:
    min(region0) of U = (0.066566844 1.0491453e-06 -2.4414022e-17)

volFieldValue maxdomain_scalar write:
    max(region0) of p = 0.054665607
    max(region0) of k = 0.068901952
    max(region0) of epsilon = 18.093727
    max(region0) of nut = 2.3614432e-05

volFieldValue maxdomain_vector write:
    max(region0) of U = (1.0127749 0.038662861 5.8803572e-16)

Time = 32

DILUPBiCGStab:  Solving for Ux, Initial residual = 0.0011595688, Final residual = 6.7223233e-11, No Iterations 3
DILUPBiCGStab:  Solving for Uy, Initial residual = 0.0059767039, Final residual = 9.0468123e-11, No Iterations 3
DICPCG:  Solving for p, Initial residual = 0.002090416, Final residual = 1.6007467e-05, No Iterations 77
DICPCG:  Solving for p, Initial residual = 1.5906819e-05, Final residual = 1.5052476e-07, No Iterations 41
DICPCG:  Solving for p, Initial residual = 1.5052425e-07, Final residual = 8.9965881e-09, No Iterations 49
time step continuity errors : sum local = 1.7139268e-10, global = 8.7240908e-12, cumulative = -7.179063e-12
DILUPBiCGStab:  Solving for epsilon, Initial residual = 0.00045980173, Final residual = 7.8078882e-16, No Iterations 3
DILUPBiCGStab:  Solving for k, Initial residual = 0.0028138758, Final residual = 1.3754056e-14, No Iterations 3
ExecutionTime = 0.97 s  ClockTime = 1 s

volFieldValue minmaxdomain_scalar write:

volFieldValue minmaxdomain_vector write:

volFieldValue mindomain_scalar write:
    min(region0) of p = -0.00079346844
    min(region0) of k = 5.2901665e-07
    min(region0) of epsilon = 5.8796092e-07
    min(region0) of nut = 4.283835e-08

volFieldValue mindomain_vector write:
    min(region0) of U = (0.066362069 1.0487216e-06 -1.7859388e-17)

volFieldValue maxdomain_scalar write:
    max(region0) of p = 0.054749952
    max(region0) of k = 0.068896352
    max(region0) of epsilon = 18.091065
    max(region0) of nut = 2.361407e-05

volFieldValue maxdomain_vector write:
    max(region0) of U = (1.0128404 0.038664232 5.8800499e-16)

Time = 33

DILUPBiCGStab:  Solving for Ux, Initial residual = 0.0011300855, Final residual = 6.616315e-11, No Iterations 3
DILUPBiCGStab:  Solving for Uy, Initial residual = 0.0057037988, Final residual = 9.1588723e-11, No Iterations 3
DICPCG:  Solving for p, Initial residual = 0.0020590779, Final residual = 1.9673065e-05, No Iterations 76
DICPCG:  Solving for p, Initial residual = 1.9523402e-05, Final residual = 1.8502992e-07, No Iterations 58
DICPCG:  Solving for p, Initial residual = 1.8502725e-07, Final residual = 8.3052069e-09, No Iterations 57
time step continuity errors : sum local = 1.5919157e-10, global = -2.8095955e-12, cumulative = -9.9886586e-12
DILUPBiCGStab:  Solving for epsilon, Initial residual = 0.00044605294, Final residual = 8.296346e-16, No Iterations 3
DILUPBiCGStab:  Solving for k, Initial residual = 0.0027904699, Final residual = 1.4197448e-14, No Iterations 3
ExecutionTime = 1 s  ClockTime = 1 s

volFieldValue minmaxdomain_scalar write:

volFieldValue minmaxdomain_vector write:

volFieldValue mindomain_scalar write:
    min(region0) of p = -0.00072887933
    min(region0) of k = 5.3800883e-07
    min(region0) of epsilon = 5.7608635e-07
    min(region0) of nut = 4.522033e-08

volFieldValue mindomain_vector write:
    min(region0) of U = (0.066222949 1.0516901e-06 -3.0061473e-19)

volFieldValue maxdomain_scalar write:
    max(region0) of p = 0.054837628
    max(region0) of k = 0.068891714
    max(region0) of epsilon = 18.088859
    max(region0) of nut = 2.3613769e-05

volFieldValue maxdomain_vector write:
    max(region0) of U = (1.0128796 0.038665108 5.8796698e-16)

Time = 34

DILUPBiCGStab:  Solving for Ux, Initial residual = 0.0011037289, Final residual = 6.5392767e-11, No Iterations 3
DILUPBiCGStab:  Solving for Uy, Initial residual = 0.0054439224, Final residual = 9.2819234e-11, No Iterations 3
DICPCG:  Solving for p, Initial residual = 0.0020259886, Final residual = 1.8601405e-05, No Iterations 74
DICPCG:  Solving for p, Initial residual = 1.8436352e-05, Final residual = 1.6605172e-07, No Iterations 65
DICPCG:  Solving for p, Initial residual = 1.6604922e-07, Final residual = 9.1922183e-09, No Iterations 54
time step continuity errors : sum local = 1.7743071e-10, global = -5.2408995e-12, cumulative = -1.5229558e-11
DILUPBiCGStab:  Solving for epsilon, Initial residual = 0.00044426014, Final residual = 8.2636761e-16, No Iterations 3
DILUPBiCGStab:  Solving for k, Initial residual = 0.0027665847, Final residual = 1.4311222e-14, No Iterations 3
ExecutionTime = 1.02 s  ClockTime = 1 s

volFieldValue minmaxdomain_scalar write:

volFieldValue minmaxdomain_vector write:

volFieldValue mindomain_scalar write:
    min(region0) of p = -0.00064999326
    min(region0) of k = 5.4748454e-07
    min(region0) of epsilon = 5.6620784e-07
    min(region0) of nut = 4.7629107e-08

volFieldValue mindomain_vector write:
    min(region0) of U = (0.06614276 1.053585e-06 -2.2381789e-17)

volFieldValue maxdomain_scalar write:
    max(region0) of p = 0.054928785
    max(region0) of k = 0.068887867
    max(region0) of epsilon = 18.087033
    max(region0) of nut = 2.3613516e-05

volFieldValue maxdomain_vector write:
    max(region0) of U = (1.0129495 0.038665572 5.8792266e-16)

Time = 35

DILUPBiCGStab:  Solving for Ux, Initial residual = 0.0010794665, Final residual = 6.4896545e-11, No Iterations 3
DILUPBiCGStab:  Solving for Uy, Initial residual = 0.0051980949, Final residual = 9.4189949e-11, No Iterations 3
DICPCG:  Solving for p, Initial residual = 0.0019908671, Final residual = 1.7159408e-05, No Iterations 69
DICPCG:  Solving for p, Initial residual = 1.6986948e-05, Final residual = 1.6130569e-07, No Iterations 39
DICPCG:  Solving for p, Initial residual = 1.6130567e-07, Final residual = 8.0353477e-09, No Iterations 53
time step continuity errors : sum local = 1.5631338e-10, global = 1.4337179e-11, cumulative = -8.9237875e-13
DILUPBiCGStab:  Solving for epsilon, Initial residual = 0.00044972175, Final residual = 8.1800736e-16, No Iterations 3
DILUPBiCGStab:  Solving for k, Initial residual = 0.0027421491, Final residual = 1.4510644e-14, No Iterations 3
ExecutionTime = 1.05 s  ClockTime = 1 s

volFieldValue minmaxdomain_scalar write:

volFieldValue minmaxdomain_vector write:

volFieldValue mindomain_scalar write:
    min(region0) of p = -0.0005613433
    min(region0) of k = 5.573625e-07
    min(region0) of epsilon = 5.5799818e-07
    min(region0) of nut = 4.9797126e-08

volFieldValue mindomain_vector write:
    min(region0) of U = (0.066115227 1.0578619e-06 -2.9898356e-19)

volFieldValue maxdomain_scalar write:
    max(region0) of p = 0.055023345
    max(region0) of k = 0.068884662
    max(region0) of epsilon = 18.085518
    max(region0) of nut = 2.3613297e-05

volFieldValue maxdomain_vector write:
    max(region0) of U = (1.0130072 0.038665705 5.8787316e-16)

Time = 36

DILUPBiCGStab:  Solving for Ux, Initial residual = 0.0010570713, Final residual = 6.4641221e-11, No Iterations 3
DILUPBiCGStab:  Solving for Uy, Initial residual = 0.0049677902, Final residual = 9.568816e-11, No Iterations 3
DICPCG:  Solving for p, Initial residual = 0.0019589728, Final residual = 1.9108408e-05, No Iterations 69
DICPCG:  Solving for p, Initial residual = 1.8896339e-05, Final residual = 1.7887008e-07, No Iterations 56
DICPCG:  Solving for p, Initial residual = 1.7886881e-07, Final residual = 9.9647675e-09, No Iterations 52
time step continuity errors : sum local = 1.9550521e-10, global = 1.0326211e-11, cumulative = 9.4338321e-12
DILUPBiCGStab:  Solving for epsilon, Initial residual = 0.00045456143, Final residual = 8.1245277e-16, No Iterations 3
DILUPBiCGStab:  Solving for k, Initial residual = 0.00273159, Final residual = 1.517888e-14, No Iterations 3
ExecutionTime = 1.08 s  ClockTime = 1 s

volFieldValue minmaxdomain_scalar write:

volFieldValue minmaxdomain_vector write:

volFieldValue mindomain_scalar write:
    min(region0) of p = -0.00047709333
    min(region0) of k = 5.6757134e-07
    min(region0) of epsilon = 5.5119132e-07
    min(region0) of nut = 5.1998735e-08

volFieldValue mindomain_vector write:
    min(region0) of U = (0.066134508 1.0670657e-06 -1.4483172e-18)

volFieldValue maxdomain_scalar write:
    max(region0) of p = 0.055120674
    max(region0) of k = 0.068881975
    max(region0) of epsilon = 18.084256
    max(region0) of nut = 2.3613103e-05

volFieldValue maxdomain_vector write:
    max(region0) of U = (1.0130607 0.038665583 5.8781928e-16)

Time = 37

DILUPBiCGStab:  Solving for Ux, Initial residual = 0.0010367307, Final residual = 6.4647236e-11, No Iterations 3
DILUPBiCGStab:  Solving for Uy, Initial residual = 0.0047513904, Final residual = 9.7143684e-11, No Iterations 3
DICPCG:  Solving for p, Initial residual = 0.001935458, Final residual = 1.8996721e-05, No Iterations 74
DICPCG:  Solving for p, Initial residual = 1.8768213e-05, Final residual = 1.7546393e-07, No Iterations 58
DICPCG:  Solving for p, Initial residual = 1.7546258e-07, Final residual = 9.3666459e-09, No Iterations 55
time step continuity errors : sum local = 1.854556e-10, global = 8.2588867e-12, cumulative = 1.7692719e-11
DILUPBiCGStab:  Solving for epsilon, Initial residual = 0.00045770698, Final residual = 8.402855e-16, No Iterations 3
DILUPBiCGStab:  Solving for k, Initial residual = 0.0027262946, Final residual = 1.6438061e-14, No Iterations 3
ExecutionTime = 1.11 s  ClockTime = 1 s

volFieldValue minmaxdomain_scalar write:

volFieldValue minmaxdomain_vector write:

volFieldValue mindomain_scalar write:
    min(region0) of p = -0.00039562129
    min(region0) of k = 5.7804796e-07
    min(region0) of epsilon = 5.4556895e-07
    min(region0) of nut = 5.4230771e-08

volFieldValue mindomain_vector write:
    min(region0) of U = (0.066195179 1.0792659e-06 -2.1093533e-17)

volFieldValue maxdomain_scalar write:
    max(region0) of p = 0.055220098
    max(region0) of k = 0.068879704
    max(region0) of epsilon = 18.083198
    max(region0) of nut = 2.3612927e-05

volFieldValue maxdomain_vector write:
    max(region0) of U = (1.0130972 0.038665266 5.8776165e-16)

Time = 38

DILUPBiCGStab:  Solving for Ux, Initial residual = 0.0010186293, Final residual = 6.4838198e-11, No Iterations 3
DILUPBiCGStab:  Solving for Uy, Initial residual = 0.0045503925, Final residual = 9.8085307e-11, No Iterations 3
DICPCG:  Solving for p, Initial residual = 0.0019067502, Final residual = 1.6927801e-05, No Iterations 76
DICPCG:  Solving for p, Initial residual = 1.6709745e-05, Final residual = 1.5349296e-07, No Iterations 41
DICPCG:  Solving for p, Initial residual = 1.534925e-07, Final residual = 9.9747739e-09, No Iterations 55
time step continuity errors : sum local = 1.9941863e-10, global = -5.4341866e-12, cumulative = 1.2258532e-11
DILUPBiCGStab:  Solving for epsilon, Initial residual = 0.00045929077, Final residual = 9.2237337e-16, No Iterations 3
DILUPBiCGStab:  Solving for k, Initial residual = 0.0027171346, Final residual = 1.8169096e-14, No Iterations 3
ExecutionTime = 1.14 s  ClockTime = 1 s

volFieldValue minmaxdomain_scalar write:

volFieldValue minmaxdomain_vector write:

volFieldValue mindomain_scalar write:
    min(region0) of p = -0.00030491203
    min(region0) of k = 5.8873607e-07
    min(region0) of epsilon = 5.4095038e-07
    min(region0) of nut = 5.6419103e-08

volFieldValue mindomain_vector write:
    min(region0) of U = (0.066292228 1.0951131e-06 -1.9244913e-17)

volFieldValue maxdomain_scalar write:
    max(region0) of p = 0.055321574
    max(region0) of k = 0.068877763
    max(region0) of epsilon = 18.082303
    max(region0) of nut = 2.4199097e-05

volFieldValue maxdomain_vector write:
    max(region0) of U = (1.0131403 0.038664801 5.8770096e-16)

Time = 39

DILUPBiCGStab:  Solving for Ux, Initial residual = 0.0010017535, Final residual = 6.5096093e-11, No Iterations 3
DILUPBiCGStab:  Solving for Uy, Initial residual = 0.0043658104, Final residual = 9.871696e-11, No Iterations 3
DICPCG:  Solving for p, Initial residual = 0.0018760611, Final residual = 1.5666821e-05, No Iterations 77
DICPCG:  Solving for p, Initial residual = 1.5453194e-05, Final residual = 1.4680611e-07, No Iterations 39
DICPCG:  Solving for p, Initial residual = 1.4680589e-07, Final residual = 9.6590278e-09, No Iterations 54
time step continuity errors : sum local = 1.9507982e-10, global = -6.6708351e-12, cumulative = 5.5876971e-12
DILUPBiCGStab:  Solving for epsilon, Initial residual = 0.00045942331, Final residual = 1.0423689e-15, No Iterations 3
DILUPBiCGStab:  Solving for k, Initial residual = 0.0027037037, Final residual = 2.0318034e-14, No Iterations 3
ExecutionTime = 1.17 s  ClockTime = 1 s

volFieldValue minmaxdomain_scalar write:

volFieldValue minmaxdomain_vector write:

volFieldValue mindomain_scalar write:
    min(region0) of p = -0.00020972281
    min(region0) of k = 5.9958517e-07
    min(region0) of epsilon = 5.3718485e-07
    min(region0) of nut = 5.5491343e-08

volFieldValue mindomain_vector write:
    min(region0) of U = (0.066421044 1.1096845e-06 -3.5912915e-19)

volFieldValue maxdomain_scalar write:
    max(region0) of p = 0.05542482
    max(region0) of k = 0.068876079
    max(region0) of epsilon = 18.081539
    max(region0) of nut = 2.5266039e-05

volFieldValue maxdomain_vector write:
    max(region0) of U = (1.0131855 0.038664226 5.8763776e-16)

Time = 40

DILUPBiCGStab:  Solving for Ux, Initial residual = 0.00098597881, Final residual = 6.5509586e-11, No Iterations 3
DILUPBiCGStab:  Solving for Uy, Initial residual = 0.0042007689, Final residual = 9.9213181e-11, No Iterations 3
DICPCG:  Solving for p, Initial residual = 0.001841907, Final residual = 1.5593705e-05, No Iterations 77
DICPCG:  Solving for p, Initial residual = 1.5371113e-05, Final residual = 1.5369101e-07, No Iterations 38
DICPCG:  Solving for p, Initial residual = 1.5369091e-07, Final residual = 8.936294e-09, No Iterations 54
time step continuity errors : sum local = 1.8240215e-10, global = -2.2391806e-12, cumulative = 3.3485165e-12
DILUPBiCGStab:  Solving for epsilon, Initial residual = 0.0004582545, Final residual = 1.206975e-15, No Iterations 3
DILUPBiCGStab:  Solving for k, Initial residual = 0.0026861627, Final residual = 2.2730867e-14, No Iterations 3
ExecutionTime = 1.19 s  ClockTime = 1 s

volFieldValue minmaxdomain_scalar write:

volFieldValue minmaxdomain_vector write:

volFieldValue mindomain_scalar write:
    min(region0) of p = -0.00016608848
    min(region0) of k = 6.105497e-07
    min(region0) of epsilon = 5.3414565e-07
    min(region0) of nut = 5.4273017e-08

volFieldValue mindomain_vector write:
    min(region0) of U = (0.066577405 1.1180798e-06 -3.2963909e-19)

volFieldValue maxdomain_scalar write:
    max(region0) of p = 0.055529215
    max(region0) of k = 0.068874594
    max(region0) of epsilon = 18.080876
    max(region0) of nut = 2.6317248e-05

volFieldValue maxdomain_vector write:
    max(region0) of U = (1.0132291 0.03866357 5.8757243e-16)

Time = 41

DILUPBiCGStab:  Solving for Ux, Initial residual = 0.00097110473, Final residual = 6.603986e-11, No Iterations 3
DILUPBiCGStab:  Solving for Uy, Initial residual = 0.0040500021, Final residual = 9.92217e-11, No Iterations 3
DICPCG:  Solving for p, Initial residual = 0.0018111368, Final residual = 1.6335843e-05, No Iterations 76
DICPCG:  Solving for p, Initial residual = 1.6094031e-05, Final residual = 1.5960386e-07, No Iterations 40
DICPCG:  Solving for p, Initial residual = 1.5960371e-07, Final residual = 8.3853725e-09, No Iterations 55
time step continuity errors : sum local = 1.7303292e-10, global = -7.1194552e-12, cumulative = -3.7709387e-12
DILUPBiCGStab:  Solving for epsilon, Initial residual = 0.00045596943, Final residual = 1.4253547e-15, No Iterations 3
DILUPBiCGStab:  Solving for k, Initial residual = 0.0026650335, Final residual = 2.5398569e-14, No Iterations 3
ExecutionTime = 1.22 s  ClockTime = 1 s

volFieldValue minmaxdomain_scalar write:

volFieldValue minmaxdomain_vector write:

volFieldValue mindomain_scalar write:
    min(region0) of p = -0.00017013993
    min(region0) of k = 6.2158833e-07
    min(region0) of epsilon = 5.3172556e-07
    min(region0) of nut = 5.3327617e-08

volFieldValue mindomain_vector write:
    min(region0) of U = (0.066757462 1.1236954e-06 -3.3591909e-19)

volFieldValue maxdomain_scalar write:
    max(region0) of p = 0.055634186
    max(region0) of k = 0.06887326
    max(region0) of epsilon = 18.080291
    max(region0) of nut = 2.7590769e-05

volFieldValue maxdomain_vector write:
    max(region0) of U = (1.0132628 0.038662852 5.8750558e-16)

Time = 42

DILUPBiCGStab:  Solving for Ux, Initial residual = 0.00095675799, Final residual = 6.6663079e-11, No Iterations 3
DILUPBiCGStab:  Solving for Uy, Initial residual = 0.003912403, Final residual = 9.857848e-11, No Iterations 3
DICPCG:  Solving for p, Initial residual = 0.0017821758, Final residual = 1.6109033e-05, No Iterations 75
DICPCG:  Solving for p, Initial residual = 1.5862821e-05, Final residual = 1.3866216e-07, No Iterations 36
DICPCG:  Solving for p, Initial residual = 1.3866206e-07, Final residual = 8.8003259e-09, No Iterations 54
time step continuity errors : sum local = 1.8364497e-10, global = -6.045456e-12, cumulative = -9.8163947e-12
DILUPBiCGStab:  Solving for epsilon, Initial residual = 0.00045270456, Final residual = 1.703629e-15, No Iterations 3
DILUPBiCGStab:  Solving for k, Initial residual = 0.0026410676, Final residual = 2.8293969e-14, No Iterations 3
ExecutionTime = 1.25 s  ClockTime = 1 s

volFieldValue minmaxdomain_scalar write:

volFieldValue minmaxdomain_vector write:

volFieldValue mindomain_scalar write:
    min(region0) of p = -0.00017428526
    min(region0) of k = 6.3266345e-07
    min(region0) of epsilon = 5.2983324e-07
    min(region0) of nut = 5.2850391e-08

volFieldValue mindomain_vector write:
    min(region0) of U = (0.066957722 1.1297562e-06 -1.6409017e-17)

volFieldValue maxdomain_scalar write:
    max(region0) of p = 0.055739737
    max(region0) of k = 0.068872042
    max(region0) of epsilon = 18.079766
    max(region0) of nut = 2.8875579e-05

volFieldValue maxdomain_vector write:
    max(region0) of U = (1.0132892 0.03866209 5.8743808e-16)

Time = 43

DILUPBiCGStab:  Solving for Ux, Initial residual = 0.00094275976, Final residual = 6.7158374e-11, No Iterations 3
DILUPBiCGStab:  Solving for Uy, Initial residual = 0.0037817891, Final residual = 9.758419e-11, No Iterations 3
DICPCG:  Solving for p, Initial residual = 0.001751231, Final residual = 1.5070596e-05, No Iterations 75
DICPCG:  Solving for p, Initial residual = 1.4834686e-05, Final residual = 1.4550649e-07, No Iterations 34
DICPCG:  Solving for p, Initial residual = 1.4550641e-07, Final residual = 9.3365998e-09, No Iterations 52
time step continuity errors : sum local = 1.9707656e-10, global = 9.9432663e-12, cumulative = 1.268716e-13
DILUPBiCGStab:  Solving for epsilon, Initial residual = 0.0004485404, Final residual = 2.0488052e-15, No Iterations 3
DILUPBiCGStab:  Solving for k, Initial residual = 0.0026145761, Final residual = 3.1385105e-14, No Iterations 3
ExecutionTime = 1.29 s  ClockTime = 1 s

volFieldValue minmaxdomain_scalar write:

volFieldValue minmaxdomain_vector write:

volFieldValue mindomain_scalar write:
    min(region0) of p = -0.00017865878
    min(region0) of k = 6.4374071e-07
    min(region0) of epsilon = 5.2839046e-07
    min(region0) of nut = 5.2888105e-08

volFieldValue mindomain_vector write:
    min(region0) of U = (0.06717503 1.1366823e-06 -1.2379907e-17)

volFieldValue maxdomain_scalar write:
    max(region0) of p = 0.055845526
    max(region0) of k = 0.068870909
    max(region0) of epsilon = 18.079286
    max(region0) of nut = 3.0142883e-05

volFieldValue maxdomain_vector write:
    max(region0) of U = (1.0133176 0.038661286 5.8737113e-16)

Time = 44

DILUPBiCGStab:  Solving for Ux, Initial residual = 0.00092886315, Final residual = 6.755227e-11, No Iterations 3
DILUPBiCGStab:  Solving for Uy, Initial residual = 0.0036553112, Final residual = 9.6189492e-11, No Iterations 3
DICPCG:  Solving for p, Initial residual = 0.0017209454, Final residual = 1.4792384e-05, No Iterations 75
DICPCG:  Solving for p, Initial residual = 1.4557876e-05, Final residual = 1.263057e-07, No Iterations 34
DICPCG:  Solving for p, Initial residual = 1.2630576e-07, Final residual = 9.4682368e-09, No Iterations 52
time step continuity errors : sum local = 2.021634e-10, global = -3.3571308e-12, cumulative = -3.2302592e-12
DILUPBiCGStab:  Solving for epsilon, Initial residual = 0.0004436035, Final residual = 2.4622559e-15, No Iterations 3
DILUPBiCGStab:  Solving for k, Initial residual = 0.0025858571, Final residual = 3.4506587e-14, No Iterations 3
ExecutionTime = 1.31 s  ClockTime = 1 s

volFieldValue minmaxdomain_scalar write:

volFieldValue minmaxdomain_vector write:

volFieldValue mindomain_scalar write:
    min(region0) of p = -0.0001832173
    min(region0) of k = 6.5478871e-07
    min(region0) of epsilon = 5.2732984e-07
    min(region0) of nut = 5.1240479e-08

volFieldValue mindomain_vector write:
    min(region0) of U = (0.067406554 1.1471586e-06 -3.5369831e-19)

volFieldValue maxdomain_scalar write:
    max(region0) of p = 0.055950802
    max(region0) of k = 0.068869835
    max(region0) of epsilon = 18.07884
    max(region0) of nut = 3.1391446e-05

volFieldValue maxdomain_vector write:
    max(region0) of U = (1.0133544 0.038660447 5.8730561e-16)

Time = 45

DILUPBiCGStab:  Solving for Ux, Initial residual = 0.00091503648, Final residual = 6.7943291e-11, No Iterations 3
DILUPBiCGStab:  Solving for Uy, Initial residual = 0.0035322034, Final residual = 9.4372946e-11, No Iterations 3
DICPCG:  Solving for p, Initial residual = 0.0016854856, Final residual = 1.6430696e-05, No Iterations 75
DICPCG:  Solving for p, Initial residual = 1.6168653e-05, Final residual = 1.5049624e-07, No Iterations 38
DICPCG:  Solving for p, Initial residual = 1.5049654e-07, Final residual = 8.2063452e-09, No Iterations 56
time step continuity errors : sum local = 1.7724238e-10, global = -3.8515367e-12, cumulative = -7.0817959e-12
DILUPBiCGStab:  Solving for epsilon, Initial residual = 0.00043801916, Final residual = 2.9537029e-15, No Iterations 3
DILUPBiCGStab:  Solving for k, Initial residual = 0.0025552529, Final residual = 3.7737907e-14, No Iterations 3
ExecutionTime = 1.34 s  ClockTime = 1 s

volFieldValue minmaxdomain_scalar write:

volFieldValue minmaxdomain_vector write:

volFieldValue mindomain_scalar write:
    min(region0) of p = -0.00018794256
    min(region0) of k = 6.6577864e-07
    min(region0) of epsilon = 5.265931e-07
    min(region0) of nut = 4.9910373e-08

volFieldValue mindomain_vector write:
    min(region0) of U = (0.067649776 1.1587002e-06 -4.0354686e-19)

volFieldValue maxdomain_scalar write:
    max(region0) of p = 0.056055277
    max(region0) of k = 0.068868797
    max(region0) of epsilon = 18.078417
    max(region0) of nut = 3.2622893e-05

volFieldValue maxdomain_vector write:
    max(region0) of U = (1.0133856 0.038659595 5.8724209e-16)

Time = 46

DILUPBiCGStab:  Solving for Ux, Initial residual = 0.00090124234, Final residual = 6.7995022e-11, No Iterations 3
DILUPBiCGStab:  Solving for Uy, Initial residual = 0.0034123942, Final residual = 9.2129408e-11, No Iterations 3
DICPCG:  Solving for p, Initial residual = 0.0016595066, Final residual = 1.557244e-05, No Iterations 76
DICPCG:  Solving for p, Initial residual = 1.5323375e-05, Final residual = 1.3472721e-07, No Iterations 45
DICPCG:  Solving for p, Initial residual = 1.3472746e-07, Final residual = 9.3427584e-09, No Iterations 56
time step continuity errors : sum local = 2.0411198e-10, global = -1.0116431e-11, cumulative = -1.7198227e-11
DILUPBiCGStab:  Solving for epsilon, Initial residual = 0.0004318916, Final residual = 3.5425234e-15, No Iterations 3
DILUPBiCGStab:  Solving for k, Initial residual = 0.0025232848, Final residual = 4.1107216e-14, No Iterations 3
ExecutionTime = 1.37 s  ClockTime = 1 s

volFieldValue minmaxdomain_scalar write:

volFieldValue minmaxdomain_vector write:

volFieldValue mindomain_scalar write:
    min(region0) of p = -0.00019282483
    min(region0) of k = 6.7668412e-07
    min(region0) of epsilon = 5.2612957e-07
    min(region0) of nut = 4.9128502e-08

volFieldValue mindomain_vector write:
    min(region0) of U = (0.067902461 1.1694783e-06 -3.6566065e-19)

volFieldValue maxdomain_scalar write:
    max(region0) of p = 0.056158936
    max(region0) of k = 0.068867782
    max(region0) of epsilon = 18.078009
    max(region0) of nut = 3.3834111e-05

volFieldValue maxdomain_vector write:
    max(region0) of U = (1.0134148 0.038658756 5.8718069e-16)

Time = 47

DILUPBiCGStab:  Solving for Ux, Initial residual = 0.00088757415, Final residual = 6.7803617e-11, No Iterations 3
DILUPBiCGStab:  Solving for Uy, Initial residual = 0.0032967646, Final residual = 8.9836591e-11, No Iterations 3
DICPCG:  Solving for p, Initial residual = 0.0016309068, Final residual = 1.5292969e-05, No Iterations 78
DICPCG:  Solving for p, Initial residual = 1.5049061e-05, Final residual = 1.423576e-07, No Iterations 44
DICPCG:  Solving for p, Initial residual = 1.4235774e-07, Final residual = 9.3217247e-09, No Iterations 57
time step continuity errors : sum local = 2.0598243e-10, global = -6.3757182e-13, cumulative = -1.7835799e-11
DILUPBiCGStab:  Solving for epsilon, Initial residual = 0.00042532479, Final residual = 4.2225933e-15, No Iterations 3
DILUPBiCGStab:  Solving for k, Initial residual = 0.0024901603, Final residual = 4.4446882e-14, No Iterations 3
ExecutionTime = 1.4 s  ClockTime = 1 s

volFieldValue minmaxdomain_scalar write:

volFieldValue minmaxdomain_vector write:

volFieldValue mindomain_scalar write:
    min(region0) of p = -0.00019783008
    min(region0) of k = 6.8748097e-07
    min(region0) of epsilon = 5.2589508e-07
    min(region0) of nut = 4.9143596e-08

volFieldValue mindomain_vector write:
    min(region0) of U = (0.068162645 1.1783449e-06 -4.430159e-19)

volFieldValue maxdomain_scalar write:
    max(region0) of p = 0.056261275
    max(region0) of k = 0.068866783
    max(region0) of epsilon = 18.077609
    max(region0) of nut = 3.5025803e-05

volFieldValue maxdomain_vector write:
    max(region0) of U = (1.0134342 0.038657945 5.8712143e-16)

Time = 48

DILUPBiCGStab:  Solving for Ux, Initial residual = 0.00087402468, Final residual = 6.7551887e-11, No Iterations 3
DILUPBiCGStab:  Solving for Uy, Initial residual = 0.003182898, Final residual = 8.7422154e-11, No Iterations 3
DICPCG:  Solving for p, Initial residual = 0.0016078111, Final residual = 1.4917172e-05, No Iterations 79
DICPCG:  Solving for p, Initial residual = 1.4681244e-05, Final residual = 1.3547248e-07, No Iterations 43
DICPCG:  Solving for p, Initial residual = 1.3547262e-07, Final residual = 9.2542901e-09, No Iterations 58
time step continuity errors : sum local = 2.0680552e-10, global = 4.6831627e-12, cumulative = -1.3152636e-11
DILUPBiCGStab:  Solving for epsilon, Initial residual = 0.00041836071, Final residual = 5.0232257e-15, No Iterations 3
DILUPBiCGStab:  Solving for k, Initial residual = 0.0024561208, Final residual = 4.7627607e-14, No Iterations 3
ExecutionTime = 1.43 s  ClockTime = 1 s

volFieldValue minmaxdomain_scalar write:

volFieldValue minmaxdomain_vector write:

volFieldValue mindomain_scalar write:
    min(region0) of p = -0.00020291942
    min(region0) of k = 6.9814701e-07
    min(region0) of epsilon = 5.2585099e-07
    min(region0) of nut = 4.9268977e-08

volFieldValue mindomain_vector write:
    min(region0) of U = (0.068428601 1.1826258e-06 -5.9951351e-18)

volFieldValue maxdomain_scalar write:
    max(region0) of p = 0.056361698
    max(region0) of k = 0.068865797
    max(region0) of epsilon = 18.077215
    max(region0) of nut = 3.6271267e-05

volFieldValue maxdomain_vector write:
    max(region0) of U = (1.0134627 0.038657166 5.8706423e-16)

Time = 49

DILUPBiCGStab:  Solving for Ux, Initial residual = 0.00086055236, Final residual = 6.6861792e-11, No Iterations 3
DILUPBiCGStab:  Solving for Uy, Initial residual = 0.0030674962, Final residual = 8.5077792e-11, No Iterations 3
[...]
DICPCG:  Solving for p, Initial residual = 9.4514932e-09, Final residual = 5.9212987e-09, No Iterations 3
time step continuity errors : sum local = 2.2271454e-10, global = -6.2207367e-12, cumulative = -3.6246549e-09
DILUPBiCGStab:  Solving for epsilon, Initial residual = 3.5616323e-08, Final residual = 4.6225456e-18, No Iterations 3
DILUPBiCGStab:  Solving for k, Initial residual = 2.4351647e-07, Final residual = 4.8429989e-17, No Iterations 3
ExecutionTime = 47.56 s  ClockTime = 47 s

volFieldValue minmaxdomain_scalar write:

volFieldValue minmaxdomain_vector write:

volFieldValue mindomain_scalar write:
    min(region0) of p = -0.0018410469
    min(region0) of k = 0.00014378193
    min(region0) of epsilon = 1.8169259e-06
    min(region0) of nut = 3.6018697e-07

volFieldValue mindomain_vector write:
    min(region0) of U = (0.10669278 -1.7580004e-06 -1.6090149e-17)

volFieldValue maxdomain_scalar write:
    max(region0) of p = 0.063034903
    max(region0) of k = 0.068880523
    max(region0) of epsilon = 18.082609
    max(region0) of nut = 0.0011105551

volFieldValue maxdomain_vector write:
    max(region0) of U = (1.0164553 0.038588787 5.8330061e-16)

Time = 1994

DILUPBiCGStab:  Solving for Ux, Initial residual = 2.2762581e-07, Final residual = 3.0460712e-14, No Iterations 3
DILUPBiCGStab:  Solving for Uy, Initial residual = 2.7808554e-06, Final residual = 4.1283692e-13, No Iterations 3
DICPCG:  Solving for p, Initial residual = 3.4519346e-06, Final residual = 3.1557991e-08, No Iterations 62
DICPCG:  Solving for p, Initial residual = 3.1558427e-08, Final residual = 9.5160057e-09, No Iterations 11
DICPCG:  Solving for p, Initial residual = 9.516006e-09, Final residual = 5.9256026e-09, No Iterations 3
time step continuity errors : sum local = 2.2287014e-10, global = -6.294657e-12, cumulative = -3.6309496e-09
DILUPBiCGStab:  Solving for epsilon, Initial residual = 3.56068e-08, Final residual = 4.6215068e-18, No Iterations 3
DILUPBiCGStab:  Solving for k, Initial residual = 2.4337202e-07, Final residual = 4.8412579e-17, No Iterations 3
ExecutionTime = 47.59 s  ClockTime = 47 s

volFieldValue minmaxdomain_scalar write:

volFieldValue minmaxdomain_vector write:

volFieldValue mindomain_scalar write:
    min(region0) of p = -0.0018410775
    min(region0) of k = 0.00014378555
    min(region0) of epsilon = 1.8160261e-06
    min(region0) of nut = 3.6019869e-07

volFieldValue mindomain_vector write:
    min(region0) of U = (0.10669275 -1.7580715e-06 -1.608916e-17)

volFieldValue maxdomain_scalar write:
    max(region0) of p = 0.063035171
    max(region0) of k = 0.068880566
    max(region0) of epsilon = 18.082626
    max(region0) of nut = 0.0011111075

volFieldValue maxdomain_vector write:
    max(region0) of U = (1.0164551 0.038588756 5.8330119e-16)

Time = 1995

DILUPBiCGStab:  Solving for Ux, Initial residual = 2.2760454e-07, Final residual = 3.0454977e-14, No Iterations 3
DILUPBiCGStab:  Solving for Uy, Initial residual = 2.7803243e-06, Final residual = 4.1270418e-13, No Iterations 3
DICPCG:  Solving for p, Initial residual = 3.4505281e-06, Final residual = 3.1769037e-08, No Iterations 62
DICPCG:  Solving for p, Initial residual = 3.1769477e-08, Final residual = 9.5904433e-09, No Iterations 11
DICPCG:  Solving for p, Initial residual = 9.5904432e-09, Final residual = 5.9923081e-09, No Iterations 3
time step continuity errors : sum local = 2.253724e-10, global = -6.3324924e-12, cumulative = -3.6372821e-09
DILUPBiCGStab:  Solving for epsilon, Initial residual = 3.5597195e-08, Final residual = 4.6203802e-18, No Iterations 3
DILUPBiCGStab:  Solving for k, Initial residual = 2.432278e-07, Final residual = 4.839505e-17, No Iterations 3
ExecutionTime = 47.61 s  ClockTime = 48 s

volFieldValue minmaxdomain_scalar write:

volFieldValue minmaxdomain_vector write:

volFieldValue mindomain_scalar write:
    min(region0) of p = -0.0018411081
    min(region0) of k = 0.00014378916
    min(region0) of epsilon = 1.8151272e-06
    min(region0) of nut = 3.602104e-07

volFieldValue mindomain_vector write:
    min(region0) of U = (0.10669271 -1.7581426e-06 -1.6088171e-17)

volFieldValue maxdomain_scalar write:
    max(region0) of p = 0.063035439
    max(region0) of k = 0.06888061
    max(region0) of epsilon = 18.082643
    max(region0) of nut = 0.0011116598

volFieldValue maxdomain_vector write:
    max(region0) of U = (1.0164548 0.038588724 5.8330177e-16)

Time = 1996

DILUPBiCGStab:  Solving for Ux, Initial residual = 2.2757795e-07, Final residual = 3.0449284e-14, No Iterations 3
DILUPBiCGStab:  Solving for Uy, Initial residual = 2.7797842e-06, Final residual = 4.1257106e-13, No Iterations 3
DICPCG:  Solving for p, Initial residual = 3.4492983e-06, Final residual = 3.1537162e-08, No Iterations 62
DICPCG:  Solving for p, Initial residual = 3.1537599e-08, Final residual = 9.4566702e-09, No Iterations 11
DICPCG:  Solving for p, Initial residual = 9.4566702e-09, Final residual = 5.9249692e-09, No Iterations 3
time step continuity errors : sum local = 2.2283353e-10, global = -6.2071913e-12, cumulative = -3.6434893e-09
DILUPBiCGStab:  Solving for epsilon, Initial residual = 3.5587508e-08, Final residual = 4.6191767e-18, No Iterations 3
DILUPBiCGStab:  Solving for k, Initial residual = 2.430839e-07, Final residual = 4.8377428e-17, No Iterations 3
ExecutionTime = 47.67 s  ClockTime = 48 s

volFieldValue minmaxdomain_scalar write:

volFieldValue minmaxdomain_vector write:

volFieldValue mindomain_scalar write:
    min(region0) of p = -0.0018411386
    min(region0) of k = 0.00014379277
    min(region0) of epsilon = 1.8142293e-06
    min(region0) of nut = 3.6022212e-07

volFieldValue mindomain_vector write:
    min(region0) of U = (0.10669268 -1.7582137e-06 -1.6087182e-17)

volFieldValue maxdomain_scalar write:
    max(region0) of p = 0.063035707
    max(region0) of k = 0.068880653
    max(region0) of epsilon = 18.08266
    max(region0) of nut = 0.0011122122

volFieldValue maxdomain_vector write:
    max(region0) of U = (1.0164546 0.038588693 5.8330236e-16)

Time = 1997

DILUPBiCGStab:  Solving for Ux, Initial residual = 2.2755146e-07, Final residual = 3.0442843e-14, No Iterations 3
DILUPBiCGStab:  Solving for Uy, Initial residual = 2.779199e-06, Final residual = 4.1244031e-13, No Iterations 3
DICPCG:  Solving for p, Initial residual = 3.4478945e-06, Final residual = 3.1563763e-08, No Iterations 62
DICPCG:  Solving for p, Initial residual = 3.1564199e-08, Final residual = 9.5267586e-09, No Iterations 11
DICPCG:  Solving for p, Initial residual = 9.5267582e-09, Final residual = 5.9320783e-09, No Iterations 3
time step continuity errors : sum local = 2.2309433e-10, global = -6.2783898e-12, cumulative = -3.6497677e-09
DILUPBiCGStab:  Solving for epsilon, Initial residual = 3.5577729e-08, Final residual = 4.6178958e-18, No Iterations 3
DILUPBiCGStab:  Solving for k, Initial residual = 2.4294032e-07, Final residual = 4.8359769e-17, No Iterations 3
ExecutionTime = 47.71 s  ClockTime = 48 s

volFieldValue minmaxdomain_scalar write:

volFieldValue minmaxdomain_vector write:

volFieldValue mindomain_scalar write:
    min(region0) of p = -0.0018411691
    min(region0) of k = 0.00014379637
    min(region0) of epsilon = 1.8133322e-06
    min(region0) of nut = 3.6023382e-07

volFieldValue mindomain_vector write:
    min(region0) of U = (0.10669265 -1.758285e-06 -1.6086192e-17)

volFieldValue maxdomain_scalar write:
    max(region0) of p = 0.063035974
    max(region0) of k = 0.068880696
    max(region0) of epsilon = 18.082677
    max(region0) of nut = 0.0011127645

volFieldValue maxdomain_vector write:
    max(region0) of U = (1.0164544 0.038588662 5.8330294e-16)

Time = 1998

DILUPBiCGStab:  Solving for Ux, Initial residual = 2.2752478e-07, Final residual = 3.0435897e-14, No Iterations 3
DILUPBiCGStab:  Solving for Uy, Initial residual = 2.7785866e-06, Final residual = 4.123082e-13, No Iterations 3
DICPCG:  Solving for p, Initial residual = 3.4464247e-06, Final residual = 3.1778154e-08, No Iterations 62
DICPCG:  Solving for p, Initial residual = 3.1778594e-08, Final residual = 9.6044192e-09, No Iterations 11
DICPCG:  Solving for p, Initial residual = 9.6044193e-09, Final residual = 5.9989028e-09, No Iterations 3
time step continuity errors : sum local = 2.2560116e-10, global = -6.3149659e-12, cumulative = -3.6560826e-09
DILUPBiCGStab:  Solving for epsilon, Initial residual = 3.5567858e-08, Final residual = 4.6165427e-18, No Iterations 3
DILUPBiCGStab:  Solving for k, Initial residual = 2.4279708e-07, Final residual = 4.8342275e-17, No Iterations 3
ExecutionTime = 47.75 s  ClockTime = 48 s

volFieldValue minmaxdomain_scalar write:

volFieldValue minmaxdomain_vector write:

volFieldValue mindomain_scalar write:
    min(region0) of p = -0.0018411995
    min(region0) of k = 0.00014379998
    min(region0) of epsilon = 1.812436e-06
    min(region0) of nut = 3.6024553e-07

volFieldValue mindomain_vector write:
    min(region0) of U = (0.10669262 -1.7583564e-06 -1.6085203e-17)

volFieldValue maxdomain_scalar write:
    max(region0) of p = 0.063036242
    max(region0) of k = 0.06888074
    max(region0) of epsilon = 18.082694
    max(region0) of nut = 0.0011133168

volFieldValue maxdomain_vector write:
    max(region0) of U = (1.0164542 0.038588631 5.8330352e-16)

Time = 1999

DILUPBiCGStab:  Solving for Ux, Initial residual = 2.2749872e-07, Final residual = 3.0428732e-14, No Iterations 3
DILUPBiCGStab:  Solving for Uy, Initial residual = 2.7779612e-06, Final residual = 4.1217553e-13, No Iterations 3
DICPCG:  Solving for p, Initial residual = 3.4449338e-06, Final residual = 3.1541155e-08, No Iterations 62
DICPCG:  Solving for p, Initial residual = 3.1541591e-08, Final residual = 9.4646269e-09, No Iterations 11
DICPCG:  Solving for p, Initial residual = 9.4646265e-09, Final residual = 5.9304774e-09, No Iterations 3
time step continuity errors : sum local = 2.230213e-10, global = -6.1914902e-12, cumulative = -3.6622741e-09
DILUPBiCGStab:  Solving for epsilon, Initial residual = 3.5557891e-08, Final residual = 4.6151264e-18, No Iterations 3
DILUPBiCGStab:  Solving for k, Initial residual = 2.4265419e-07, Final residual = 4.8319184e-17, No Iterations 3
ExecutionTime = 47.8 s  ClockTime = 48 s

volFieldValue minmaxdomain_scalar write:

volFieldValue minmaxdomain_vector write:

volFieldValue mindomain_scalar write:
    min(region0) of p = -0.0018412299
    min(region0) of k = 0.00014380358
    min(region0) of epsilon = 1.8115407e-06
    min(region0) of nut = 3.6025723e-07

volFieldValue mindomain_vector write:
    min(region0) of U = (0.10669259 -1.7584278e-06 -1.6084214e-17)

volFieldValue maxdomain_scalar write:
    max(region0) of p = 0.06303651
    max(region0) of k = 0.068880783
    max(region0) of epsilon = 18.082711
    max(region0) of nut = 0.0011138691

volFieldValue maxdomain_vector write:
    max(region0) of U = (1.016454 0.0385886 5.833041e-16)

Time = 2000

DILUPBiCGStab:  Solving for Ux, Initial residual = 2.2747357e-07, Final residual = 3.0421537e-14, No Iterations 3
DILUPBiCGStab:  Solving for Uy, Initial residual = 2.7773398e-06, Final residual = 4.1204535e-13, No Iterations 3
DICPCG:  Solving for p, Initial residual = 3.4434348e-06, Final residual = 3.1559792e-08, No Iterations 62
DICPCG:  Solving for p, Initial residual = 3.1560228e-08, Final residual = 9.5302947e-09, No Iterations 11
DICPCG:  Solving for p, Initial residual = 9.5302942e-09, Final residual = 5.9351026e-09, No Iterations 3
time step continuity errors : sum local = 2.2318909e-10, global = -6.2631528e-12, cumulative = -3.6685373e-09
DILUPBiCGStab:  Solving for epsilon, Initial residual = 3.5547858e-08, Final residual = 4.6136479e-18, No Iterations 3
DILUPBiCGStab:  Solving for k, Initial residual = 2.4251169e-07, Final residual = 4.8296997e-17, No Iterations 3
ExecutionTime = 47.84 s  ClockTime = 48 s

volFieldValue minmaxdomain_scalar write:

volFieldValue minmaxdomain_vector write:

volFieldValue mindomain_scalar write:
    min(region0) of p = -0.0018412602
    min(region0) of k = 0.00014380718
    min(region0) of epsilon = 1.8106463e-06
    min(region0) of nut = 3.6026892e-07

volFieldValue mindomain_vector write:
    min(region0) of U = (0.10669255 -1.758499e-06 -1.6083224e-17)

volFieldValue maxdomain_scalar write:
    max(region0) of p = 0.063036777
    max(region0) of k = 0.068880826
    max(region0) of epsilon = 18.082728
    max(region0) of nut = 0.0011144214

volFieldValue maxdomain_vector write:
    max(region0) of U = (1.0164538 0.038588568 5.8330468e-16)

End

/*---------------------------------------------------------------------------*\
| =========                 |                                                 |
| \\      /  F ield         | OpenFOAM: The Open Source CFD Toolbox           |
|  \\    /   O peration     | Version:  2206                                  |
|   \\  /    A nd           | Website:  www.openfoam.com                      |
|    \\/     M anipulation  |                                                 |
\*---------------------------------------------------------------------------*/
Build  : _da9441b0-20260127 OPENFOAM=2206 patch=260127 version=2206
Arch   : "LSB;label=32;scalar=64"
Exec   : simpleFoam -postProcess -func wallShearStress -latestTime
Date   : Jun 11 2026
Time   : 17:16:09
Host   : NotebookdoDan
PID    : 50642
I/O    : uncollated
Case   : /home/danilom/Trabalho_Modelagem_Turbulencia/GT2/RANS/KEpsilon_highRE_V1
nProcs : 1
trapFpe: Floating point exception trapping enabled (FOAM_SIGFPE).
fileModificationChecking : Monitoring run-time modified files using timeStampMaster (fileModificationSkew 5, maxFileModificationPolls 20)
allowSystemOperations : Allowing user-supplied system call operations

// * * * * * * * * * * * * * * * * * * * * * * * * * * * * * * * * * * * * * //
Create time

--> FOAM Warning : 
    From static Foam::IOstreamOption::compressionType Foam::IOstreamOption::compressionEnum(const Foam::word&, compressionType)
    in file db/IOstreams/IOstreams/IOstreamOption.C at line 115
    Unknown compression specifier 'uncompressed', using compression off
Create mesh for time = 2000


SIMPLE: convergence criteria
    field p	 tolerance 1e-06
    field U	 tolerance 1e-06
    field "(k|omega|epsilon)"	 tolerance 1e-06

wallShearStress wallShearStress:
    processing all wall patches

Time = 2000
Reading field p

Reading field U

Reading/calculating face flux field phi

Selecting incompressible transport model Newtonian
Selecting turbulence model type RAS
Selecting RAS turbulence model kEpsilon
RAS
{
    RASModel        kEpsilon;
    turbulence      on;
    printCoeffs     on;
    Cmu             0.09;
    C1              1.44;
    C2              1.92;
    C3              0;
    sigmak          1;
    sigmaEps        1.3;
}

No MRF models present

No finite volume options present
wallShearStress wallShearStress write:
    writing field wallShearStress
    min/max(bottom) = (-0.032265971 -0.0016895195 -9.9775731e-17), (-0.0039943338 -5.7303987e-08 2.8606649e-17)

End

/*---------------------------------------------------------------------------*\
| =========                 |                                                 |
| \\      /  F ield         | OpenFOAM: The Open Source CFD Toolbox           |
|  \\    /   O peration     | Version:  2206                                  |
|   \\  /    A nd           | Website:  www.openfoam.com                      |
|    \\/     M anipulation  |                                                 |
\*---------------------------------------------------------------------------*/
Build  : _da9441b0-20260127 OPENFOAM=2206 patch=260127 version=2206
Arch   : "LSB;label=32;scalar=64"
Exec   : simpleFoam -postProcess -func yPlus -latestTime
Date   : Jun 11 2026
Time   : 17:16:09
Host   : NotebookdoDan
PID    : 50643
I/O    : uncollated
Case   : /home/danilom/Trabalho_Modelagem_Turbulencia/GT2/RANS/KEpsilon_highRE_V1
nProcs : 1
trapFpe: Floating point exception trapping enabled (FOAM_SIGFPE).
fileModificationChecking : Monitoring run-time modified files using timeStampMaster (fileModificationSkew 5, maxFileModificationPolls 20)
allowSystemOperations : Allowing user-supplied system call operations

// * * * * * * * * * * * * * * * * * * * * * * * * * * * * * * * * * * * * * //
Create time

--> FOAM Warning : 
    From static Foam::IOstreamOption::compressionType Foam::IOstreamOption::compressionEnum(const Foam::word&, compressionType)
    in file db/IOstreams/IOstreams/IOstreamOption.C at line 115
    Unknown compression specifier 'uncompressed', using compression off
Create mesh for time = 2000


SIMPLE: convergence criteria
    field p	 tolerance 1e-06
    field U	 tolerance 1e-06
    field "(k|omega|epsilon)"	 tolerance 1e-06

Time = 2000
Reading field p

Reading field U

Reading/calculating face flux field phi

Selecting incompressible transport model Newtonian
Selecting turbulence model type RAS
Selecting RAS turbulence model kEpsilon
RAS
{
    RASModel        kEpsilon;
    turbulence      on;
    printCoeffs     on;
    Cmu             0.09;
    C1              1.44;
    C2              1.92;
    C3              0;
    sigmak          1;
    sigmaEps        1.3;
}

No MRF models present

No finite volume options present
yPlus yPlus write:
    writing field yPlus
    patch bottom y+ : min = 1.6881538, max = 4.7954782, average = 2.1441704

End

/*---------------------------------------------------------------------------*\
| =========                 |                                                 |
| \\      /  F ield         | OpenFOAM: The Open Source CFD Toolbox           |
|  \\    /   O peration     | Version:  2206                                  |
|   \\  /    A nd           | Website:  www.openfoam.com                      |
|    \\/     M anipulation  |                                                 |
\*---------------------------------------------------------------------------*/
Build  : _da9441b0-20260127 OPENFOAM=2206 patch=260127 version=2206
Arch   : "LSB;label=32;scalar=64"
Exec   : simpleFoam -postProcess -func sampleDict -latestTime
Date   : Jun 11 2026
Time   : 17:16:09
Host   : NotebookdoDan
PID    : 50644
I/O    : uncollated
Case   : /home/danilom/Trabalho_Modelagem_Turbulencia/GT2/RANS/KEpsilon_highRE_V1
nProcs : 1
trapFpe: Floating point exception trapping enabled (FOAM_SIGFPE).
fileModificationChecking : Monitoring run-time modified files using timeStampMaster (fileModificationSkew 5, maxFileModificationPolls 20)
allowSystemOperations : Allowing user-supplied system call operations

// * * * * * * * * * * * * * * * * * * * * * * * * * * * * * * * * * * * * * //
Create time

--> FOAM Warning : 
    From static Foam::IOstreamOption::compressionType Foam::IOstreamOption::compressionEnum(const Foam::word&, compressionType)
    in file db/IOstreams/IOstreams/IOstreamOption.C at line 115
    Unknown compression specifier 'uncompressed', using compression off
Create mesh for time = 2000


SIMPLE: convergence criteria
    field p	 tolerance 1e-06
    field U	 tolerance 1e-06
    field "(k|omega|epsilon)"	 tolerance 1e-06

Sampled set:
    profile0 -> raw
    profile1 -> raw

Time = 2000
Reading field p

Reading field U

Reading/calculating face flux field phi

Selecting incompressible transport model Newtonian
Selecting turbulence model type RAS
Selecting RAS turbulence model kEpsilon
RAS
{
    RASModel        kEpsilon;
    turbulence      on;
    printCoeffs     on;
    Cmu             0.09;
    C1              1.44;
    C2              1.92;
    C3              0;
    sigmak          1;
    sigmaEps        1.3;
}

No MRF models present

No finite volume options present
--> FOAM Warning : 
    From Foam::IOobjectList Foam::sampledSets::preCheckFields(unsigned int)
    in file sampledSet/sampledSets/sampledSets.C at line 219
    
Cannot find registered field matching 1(wallShearStress)

End

