/*---------------------------------------------------------------------------*\
| =========                 |                                                 |
| \\      /  F ield         | OpenFOAM: The Open Source CFD Toolbox           |
|  \\    /   O peration     | Version:  2206                                  |
|   \\  /    A nd           | Website:  www.openfoam.com                      |
|    \\/     M anipulation  |                                                 |
\*---------------------------------------------------------------------------*/
Build  : _da9441b0-20260127 OPENFOAM=2206 patch=260127 version=2206
Arch   : "LSB;label=32;scalar=64"
Exec   : simpleFoam
Date   : Jun 10 2026
Time   : 18:40:33
Host   : NotebookdoDan
PID    : 78210
I/O    : uncollated
Case   : /home/danilom/Trabalho_Modelagem_Turbulencia/GT1/turbulent_planar
nProcs : 1
trapFpe: Floating point exception trapping enabled (FOAM_SIGFPE).
fileModificationChecking : Monitoring run-time modified files using timeStampMaster (fileModificationSkew 5, maxFileModificationPolls 20)
allowSystemOperations : Allowing user-supplied system call operations

// * * * * * * * * * * * * * * * * * * * * * * * * * * * * * * * * * * * * * //
Create time

--> FOAM Warning : 
    From static Foam::IOstreamOption::compressionType Foam::IOstreamOption::compressionEnum(const Foam::word&, compressionType)
    in file db/IOstreams/IOstreams/IOstreamOption.C at line 115
    Unknown compression specifier 'uncompressed', using compression off
Create mesh for time = 0


SIMPLE: no convergence criteria found. Calculations will run for 1000 steps.

Reading field p

Reading field U

Reading/calculating face flux field phi

Selecting incompressible transport model Newtonian
Selecting turbulence model type RAS
Selecting RAS turbulence model kOmega
RAS
{
    RASModel        kOmega;
    turbulence      on;
    printCoeffs     on;
    betaStar        0.09;
    beta            0.072;
    gamma           0.52;
    alphaK          0.5;
    alphaOmega      0.5;
}

No MRF models present

No finite volume options present

Starting time loop

wallShearStress wallShearStress1:
    processing all wall patches

Time = 1

DILUPBiCGStab:  Solving for Ux, Initial residual = 1, Final residual = 5.12323318807e-09, No Iterations 9
DILUPBiCGStab:  Solving for Uy, Initial residual = 0.996791390252, Final residual = 9.13219738119e-09, No Iterations 9
DICPCG:  Solving for p, Initial residual = 1, Final residual = 0.000592251044783, No Iterations 102
DICPCG:  Solving for p, Initial residual = 2.93122909393e-06, Final residual = 4.75579583991e-09, No Iterations 4
DICPCG:  Solving for p, Initial residual = 4.75578371096e-09, Final residual = 1.14040189666e-10, No Iterations 3
time step continuity errors : sum local = 4.68595818583e-11, global = -3.43251601011e-12, cumulative = -3.43251601011e-12
DILUPBiCGStab:  Solving for omega, Initial residual = 0.0287612793832, Final residual = 7.30930627197e-09, No Iterations 7
DILUPBiCGStab:  Solving for k, Initial residual = 1, Final residual = 1.20538540484e-09, No Iterations 6
ExecutionTime = 0.02 s  ClockTime = 0 s

volFieldValue minmaxdomain_scalar write:
--> FOAM Warning : 
    From Foam::label Foam::functionObjects::fieldValues::volFieldValue::writeAll(const Foam::scalarField&, const Foam::scalarField&)
    in file fieldValues/volFieldValue/volFieldValue.C at line 160
    Requested field epsilon not found in database and not processed
--> FOAM Warning : 
    From Foam::label Foam::functionObjects::fieldValues::volFieldValue::writeAll(const Foam::scalarField&, const Foam::scalarField&)
    in file fieldValues/volFieldValue/volFieldValue.C at line 160
    Requested field nuTilda not found in database and not processed

volFieldValue minmaxdomain_vector write:

volFieldValue mindomain_scalar write:
    min(region0) of p = 0.00125227202117
    min(region0) of k = 6.89315524939e-05
    min(region0) of omega = 5.63072988623
    min(region0) of nut = 8.94476973153e-08
--> FOAM Warning : 
    From Foam::label Foam::functionObjects::fieldValues::volFieldValue::writeAll(const Foam::scalarField&, const Foam::scalarField&)
    in file fieldValues/volFieldValue/volFieldValue.C at line 160
    Requested field epsilon not found in database and not processed
--> FOAM Warning : 
    From Foam::label Foam::functionObjects::fieldValues::volFieldValue::writeAll(const Foam::scalarField&, const Foam::scalarField&)
    in file fieldValues/volFieldValue/volFieldValue.C at line 160
    Requested field nuTilda not found in database and not processed

volFieldValue mindomain_vector write:

volFieldValue maxdomain_scalar write:
    max(region0) of p = 0.255396104997
    max(region0) of k = 0.00168903661741
    max(region0) of omega = 9050.32720173
    max(region0) of nut = 2.06301506903e-05
--> FOAM Warning : 
    From Foam::label Foam::functionObjects::fieldValues::volFieldValue::writeAll(const Foam::scalarField&, const Foam::scalarField&)
    in file fieldValues/volFieldValue/volFieldValue.C at line 160
    Requested field epsilon not found in database and not processed
--> FOAM Warning : 
    From Foam::label Foam::functionObjects::fieldValues::volFieldValue::writeAll(const Foam::scalarField&, const Foam::scalarField&)
    in file fieldValues/volFieldValue/volFieldValue.C at line 160
    Requested field nuTilda not found in database and not processed

volFieldValue maxdomain_vector write:

Time = 2

DILUPBiCGStab:  Solving for Ux, Initial residual = 0.167060212597, Final residual = 9.41593743112e-09, No Iterations 9
DILUPBiCGStab:  Solving for Uy, Initial residual = 0.347300156454, Final residual = 8.95138888778e-09, No Iterations 11
DICPCG:  Solving for p, Initial residual = 0.0358696137416, Final residual = 2.69528778293e-05, No Iterations 101
DICPCG:  Solving for p, Initial residual = 2.70300060727e-05, Final residual = 1.55144608184e-08, No Iterations 5
DICPCG:  Solving for p, Initial residual = 1.55145174122e-08, Final residual = 1.32729557421e-09, No Iterations 3
time step continuity errors : sum local = 5.19467936698e-10, global = 8.6691844178e-12, cumulative = 5.2366684077e-12
DILUPBiCGStab:  Solving for omega, Initial residual = 0.270285712803, Final residual = 6.29113970949e-09, No Iterations 4
bounding omega, min: -18.8422291478 max: 9055.74655146 average: 394.703226885
DILUPBiCGStab:  Solving for k, Initial residual = 0.171022671235, Final residual = 9.97262326513e-09, No Iterations 5
ExecutionTime = 0.03 s  ClockTime = 0 s

volFieldValue minmaxdomain_scalar write:
--> FOAM Warning : 
    From Foam::label Foam::functionObjects::fieldValues::volFieldValue::writeAll(const Foam::scalarField&, const Foam::scalarField&)
    in file fieldValues/volFieldValue/volFieldValue.C at line 160
    Requested field epsilon not found in database and not processed
--> FOAM Warning : 
    From Foam::label Foam::functionObjects::fieldValues::volFieldValue::writeAll(const Foam::scalarField&, const Foam::scalarField&)
    in file fieldValues/volFieldValue/volFieldValue.C at line 160
    Requested field nuTilda not found in database and not processed

volFieldValue minmaxdomain_vector write:

volFieldValue mindomain_scalar write:
    min(region0) of p = 0.00119209841431
    min(region0) of k = 4.1891112415e-05
    min(region0) of omega = 0.119295063737
    min(region0) of nut = 8.56600155195e-08
--> FOAM Warning : 
    From Foam::label Foam::functionObjects::fieldValues::volFieldValue::writeAll(const Foam::scalarField&, const Foam::scalarField&)
    in file fieldValues/volFieldValue/volFieldValue.C at line 160
    Requested field epsilon not found in database and not processed
--> FOAM Warning : 
    From Foam::label Foam::functionObjects::fieldValues::volFieldValue::writeAll(const Foam::scalarField&, const Foam::scalarField&)
    in file fieldValues/volFieldValue/volFieldValue.C at line 160
    Requested field nuTilda not found in database and not processed

volFieldValue mindomain_vector write:

volFieldValue maxdomain_scalar write:
    max(region0) of p = 0.273415612384
    max(region0) of k = 0.00176496985011
    max(region0) of omega = 9055.74655146
    max(region0) of nut = 0.00128947126093
--> FOAM Warning : 
    From Foam::label Foam::functionObjects::fieldValues::volFieldValue::writeAll(const Foam::scalarField&, const Foam::scalarField&)
    in file fieldValues/volFieldValue/volFieldValue.C at line 160
    Requested field epsilon not found in database and not processed
--> FOAM Warning : 
    From Foam::label Foam::functionObjects::fieldValues::volFieldValue::writeAll(const Foam::scalarField&, const Foam::scalarField&)
    in file fieldValues/volFieldValue/volFieldValue.C at line 160
    Requested field nuTilda not found in database and not processed

volFieldValue maxdomain_vector write:

Time = 3

DILUPBiCGStab:  Solving for Ux, Initial residual = 0.0608482615392, Final residual = 1.89960088843e-09, No Iterations 9
DILUPBiCGStab:  Solving for Uy, Initial residual = 0.219982413502, Final residual = 4.96581626063e-09, No Iterations 9
DICPCG:  Solving for p, Initial residual = 0.0348767853664, Final residual = 2.48936871983e-05, No Iterations 101
DICPCG:  Solving for p, Initial residual = 3.26334117515e-05, Final residual = 1.71673941633e-08, No Iterations 5
DICPCG:  Solving for p, Initial residual = 1.71674640514e-08, Final residual = 3.05722176539e-09, No Iterations 3
time step continuity errors : sum local = 9.38927738109e-10, global = -7.57902913356e-11, cumulative = -7.05536229279e-11
DILUPBiCGStab:  Solving for omega, Initial residual = 0.00977388521368, Final residual = 3.93618027621e-09, No Iterations 4
DILUPBiCGStab:  Solving for k, Initial residual = 0.277600275782, Final residual = 4.99261689752e-09, No Iterations 6
ExecutionTime = 0.04 s  ClockTime = 0 s

volFieldValue minmaxdomain_scalar write:
--> FOAM Warning : 
    From Foam::label Foam::functionObjects::fieldValues::volFieldValue::writeAll(const Foam::scalarField&, const Foam::scalarField&)
    in file fieldValues/volFieldValue/volFieldValue.C at line 160
    Requested field epsilon not found in database and not processed
--> FOAM Warning : 
    From Foam::label Foam::functionObjects::fieldValues::volFieldValue::writeAll(const Foam::scalarField&, const Foam::scalarField&)
    in file fieldValues/volFieldValue/volFieldValue.C at line 160
    Requested field nuTilda not found in database and not processed

volFieldValue minmaxdomain_vector write:

volFieldValue mindomain_scalar write:
    min(region0) of p = 0.000866946835156
    min(region0) of k = 4.94132085627e-05
    min(region0) of omega = 3.80406449339
    min(region0) of nut = 5.63478841498e-08
--> FOAM Warning : 
    From Foam::label Foam::functionObjects::fieldValues::volFieldValue::writeAll(const Foam::scalarField&, const Foam::scalarField&)
    in file fieldValues/volFieldValue/volFieldValue.C at line 160
    Requested field epsilon not found in database and not processed
--> FOAM Warning : 
    From Foam::label Foam::functionObjects::fieldValues::volFieldValue::writeAll(const Foam::scalarField&, const Foam::scalarField&)
    in file fieldValues/volFieldValue/volFieldValue.C at line 160
    Requested field nuTilda not found in database and not processed

volFieldValue mindomain_vector write:

volFieldValue maxdomain_scalar write:
    max(region0) of p = 0.228958953006
    max(region0) of k = 0.00215152891301
    max(region0) of omega = 9060.32814536
    max(region0) of nut = 4.35505279841e-05
--> FOAM Warning : 
    From Foam::label Foam::functionObjects::fieldValues::volFieldValue::writeAll(const Foam::scalarField&, const Foam::scalarField&)
    in file fieldValues/volFieldValue/volFieldValue.C at line 160
    Requested field epsilon not found in database and not processed
--> FOAM Warning : 
    From Foam::label Foam::functionObjects::fieldValues::volFieldValue::writeAll(const Foam::scalarField&, const Foam::scalarField&)
    in file fieldValues/volFieldValue/volFieldValue.C at line 160
    Requested field nuTilda not found in database and not processed

volFieldValue maxdomain_vector write:

Time = 4

DILUPBiCGStab:  Solving for Ux, Initial residual = 0.0359169195497, Final residual = 9.9641051623e-09, No Iterations 8
DILUPBiCGStab:  Solving for Uy, Initial residual = 0.260246390641, Final residual = 4.07240934307e-09, No Iterations 10
DICPCG:  Solving for p, Initial residual = 0.0470655200474, Final residual = 2.5936822509e-05, No Iterations 101
DICPCG:  Solving for p, Initial residual = 2.99244081202e-05, Final residual = 1.71015792394e-08, No Iterations 5
DICPCG:  Solving for p, Initial residual = 1.71016599863e-08, Final residual = 5.29184581141e-09, No Iterations 3
time step continuity errors : sum local = 1.47137813998e-09, global = 1.33860350727e-11, cumulative = -5.71675878552e-11
DILUPBiCGStab:  Solving for omega, Initial residual = 0.0104821587504, Final residual = 3.82589171918e-09, No Iterations 4
DILUPBiCGStab:  Solving for k, Initial residual = 0.282980261195, Final residual = 8.09501131632e-09, No Iterations 5
ExecutionTime = 0.05 s  ClockTime = 0 s

volFieldValue minmaxdomain_scalar write:
--> FOAM Warning : 
    From Foam::label Foam::functionObjects::fieldValues::volFieldValue::writeAll(const Foam::scalarField&, const Foam::scalarField&)
    in file fieldValues/volFieldValue/volFieldValue.C at line 160
    Requested field epsilon not found in database and not processed
--> FOAM Warning : 
    From Foam::label Foam::functionObjects::fieldValues::volFieldValue::writeAll(const Foam::scalarField&, const Foam::scalarField&)
    in file fieldValues/volFieldValue/volFieldValue.C at line 160
    Requested field nuTilda not found in database and not processed

volFieldValue minmaxdomain_vector write:

volFieldValue mindomain_scalar write:
    min(region0) of p = 0.00071830480826
    min(region0) of k = 6.03771471349e-05
    min(region0) of omega = 3.29475461824
    min(region0) of nut = 3.55361550982e-08
--> FOAM Warning : 
    From Foam::label Foam::functionObjects::fieldValues::volFieldValue::writeAll(const Foam::scalarField&, const Foam::scalarField&)
    in file fieldValues/volFieldValue/volFieldValue.C at line 160
    Requested field epsilon not found in database and not processed
--> FOAM Warning : 
    From Foam::label Foam::functionObjects::fieldValues::volFieldValue::writeAll(const Foam::scalarField&, const Foam::scalarField&)
    in file fieldValues/volFieldValue/volFieldValue.C at line 160
    Requested field nuTilda not found in database and not processed

volFieldValue mindomain_vector write:

volFieldValue maxdomain_scalar write:
    max(region0) of p = 0.204843583853
    max(region0) of k = 0.00234611224523
    max(region0) of omega = 9062.7203335
    max(region0) of nut = 3.6781338199e-05
--> FOAM Warning : 
    From Foam::label Foam::functionObjects::fieldValues::volFieldValue::writeAll(const Foam::scalarField&, const Foam::scalarField&)
    in file fieldValues/volFieldValue/volFieldValue.C at line 160
    Requested field epsilon not found in database and not processed
--> FOAM Warning : 
    From Foam::label Foam::functionObjects::fieldValues::volFieldValue::writeAll(const Foam::scalarField&, const Foam::scalarField&)
    in file fieldValues/volFieldValue/volFieldValue.C at line 160
    Requested field nuTilda not found in database and not processed

volFieldValue maxdomain_vector write:

Time = 5

DILUPBiCGStab:  Solving for Ux, Initial residual = 0.0254895783956, Final residual = 3.76163435397e-09, No Iterations 8
DILUPBiCGStab:  Solving for Uy, Initial residual = 0.235321429261, Final residual = 6.28997220862e-09, No Iterations 9
DICPCG:  Solving for p, Initial residual = 0.0505364841792, Final residual = 2.52683411234e-05, No Iterations 101
DICPCG:  Solving for p, Initial residual = 2.60656577391e-05, Final residual = 2.09435362009e-08, No Iterations 9
DICPCG:  Solving for p, Initial residual = 2.09435841593e-08, Final residual = 2.35579821527e-09, No Iterations 3
time step continuity errors : sum local = 6.55898718114e-10, global = 1.4537800757e-10, cumulative = 8.8210419715e-11
DILUPBiCGStab:  Solving for omega, Initial residual = 0.00398178662723, Final residual = 4.02420181571e-09, No Iterations 4
DILUPBiCGStab:  Solving for k, Initial residual = 0.262425248076, Final residual = 3.67222650538e-09, No Iterations 6
ExecutionTime = 0.07 s  ClockTime = 0 s

volFieldValue minmaxdomain_scalar write:
--> FOAM Warning : 
    From Foam::label Foam::functionObjects::fieldValues::volFieldValue::writeAll(const Foam::scalarField&, const Foam::scalarField&)
    in file fieldValues/volFieldValue/volFieldValue.C at line 160
    Requested field epsilon not found in database and not processed
--> FOAM Warning : 
    From Foam::label Foam::functionObjects::fieldValues::volFieldValue::writeAll(const Foam::scalarField&, const Foam::scalarField&)
    in file fieldValues/volFieldValue/volFieldValue.C at line 160
    Requested field nuTilda not found in database and not processed

volFieldValue minmaxdomain_vector write:

volFieldValue mindomain_scalar write:
    min(region0) of p = 0.000668624025555
    min(region0) of k = 4.58105429402e-05
    min(region0) of omega = 2.92142949812
    min(region0) of nut = 2.35340019611e-08
--> FOAM Warning : 
    From Foam::label Foam::functionObjects::fieldValues::volFieldValue::writeAll(const Foam::scalarField&, const Foam::scalarField&)
    in file fieldValues/volFieldValue/volFieldValue.C at line 160
    Requested field epsilon not found in database and not processed
--> FOAM Warning : 
    From Foam::label Foam::functionObjects::fieldValues::volFieldValue::writeAll(const Foam::scalarField&, const Foam::scalarField&)
    in file fieldValues/volFieldValue/volFieldValue.C at line 160
    Requested field nuTilda not found in database and not processed

volFieldValue mindomain_vector write:

volFieldValue maxdomain_scalar write:
    max(region0) of p = 0.19885740901
    max(region0) of k = 0.00245312033326
    max(region0) of omega = 9063.92425714
    max(region0) of nut = 2.28272170094e-05
--> FOAM Warning : 
    From Foam::label Foam::functionObjects::fieldValues::volFieldValue::writeAll(const Foam::scalarField&, const Foam::scalarField&)
    in file fieldValues/volFieldValue/volFieldValue.C at line 160
    Requested field epsilon not found in database and not processed
--> FOAM Warning : 
    From Foam::label Foam::functionObjects::fieldValues::volFieldValue::writeAll(const Foam::scalarField&, const Foam::scalarField&)
    in file fieldValues/volFieldValue/volFieldValue.C at line 160
    Requested field nuTilda not found in database and not processed

volFieldValue maxdomain_vector write:

Time = 6

DILUPBiCGStab:  Solving for Ux, Initial residual = 0.0200156193834, Final residual = 6.56082947994e-09, No Iterations 7
DILUPBiCGStab:  Solving for Uy, Initial residual = 0.21974826837, Final residual = 8.62330879097e-09, No Iterations 8
DICPCG:  Solving for p, Initial residual = 0.049200375628, Final residual = 2.15607235967e-05, No Iterations 101
DICPCG:  Solving for p, Initial residual = 2.17804762266e-05, Final residual = 1.22563225032e-08, No Iterations 5
DICPCG:  Solving for p, Initial residual = 1.22564023366e-08, Final residual = 4.41943521819e-09, No Iterations 3
time step continuity errors : sum local = 1.23498732701e-09, global = 7.64861094358e-11, cumulative = 1.64696529151e-10
DILUPBiCGStab:  Solving for omega, Initial residual = 0.00323045425239, Final residual = 8.14749158948e-09, No Iterations 4
DILUPBiCGStab:  Solving for k, Initial residual = 0.231949514365, Final residual = 5.71522612582e-09, No Iterations 6
ExecutionTime = 0.08 s  ClockTime = 0 s

volFieldValue minmaxdomain_scalar write:
--> FOAM Warning : 
    From Foam::label Foam::functionObjects::fieldValues::volFieldValue::writeAll(const Foam::scalarField&, const Foam::scalarField&)
    in file fieldValues/volFieldValue/volFieldValue.C at line 160
    Requested field epsilon not found in database and not processed
--> FOAM Warning : 
    From Foam::label Foam::functionObjects::fieldValues::volFieldValue::writeAll(const Foam::scalarField&, const Foam::scalarField&)
    in file fieldValues/volFieldValue/volFieldValue.C at line 160
    Requested field nuTilda not found in database and not processed

volFieldValue minmaxdomain_vector write:

volFieldValue mindomain_scalar write:
    min(region0) of p = 0.000637895189068
    min(region0) of k = 3.22417570013e-05
    min(region0) of omega = 2.63029852913
    min(region0) of nut = 1.66404663838e-08
--> FOAM Warning : 
    From Foam::label Foam::functionObjects::fieldValues::volFieldValue::writeAll(const Foam::scalarField&, const Foam::scalarField&)
    in file fieldValues/volFieldValue/volFieldValue.C at line 160
    Requested field epsilon not found in database and not processed
--> FOAM Warning : 
    From Foam::label Foam::functionObjects::fieldValues::volFieldValue::writeAll(const Foam::scalarField&, const Foam::scalarField&)
    in file fieldValues/volFieldValue/volFieldValue.C at line 160
    Requested field nuTilda not found in database and not processed

volFieldValue mindomain_vector write:

volFieldValue maxdomain_scalar write:
    max(region0) of p = 0.197768810775
    max(region0) of k = 0.00251521998978
    max(region0) of omega = 9064.58626814
    max(region0) of nut = 2.35075247595e-05
--> FOAM Warning : 
    From Foam::label Foam::functionObjects::fieldValues::volFieldValue::writeAll(const Foam::scalarField&, const Foam::scalarField&)
    in file fieldValues/volFieldValue/volFieldValue.C at line 160
    Requested field epsilon not found in database and not processed
--> FOAM Warning : 
    From Foam::label Foam::functionObjects::fieldValues::volFieldValue::writeAll(const Foam::scalarField&, const Foam::scalarField&)
    in file fieldValues/volFieldValue/volFieldValue.C at line 160
    Requested field nuTilda not found in database and not processed

volFieldValue maxdomain_vector write:

Time = 7

DILUPBiCGStab:  Solving for Ux, Initial residual = 0.016376907855, Final residual = 5.52300380789e-09, No Iterations 7
DILUPBiCGStab:  Solving for Uy, Initial residual = 0.203888305863, Final residual = 6.64105367117e-09, No Iterations 8
DICPCG:  Solving for p, Initial residual = 0.0465961739917, Final residual = 1.77809236845e-05, No Iterations 101
DICPCG:  Solving for p, Initial residual = 1.79515451651e-05, Final residual = 1.23239554954e-08, No Iterations 5
DICPCG:  Solving for p, Initial residual = 1.23240251894e-08, Final residual = 5.67148727632e-09, No Iterations 3
time step continuity errors : sum local = 1.58246884542e-09, global = 1.51198645454e-10, cumulative = 3.15895174605e-10
DILUPBiCGStab:  Solving for omega, Initial residual = 0.00143896561301, Final residual = 3.78203534991e-09, No Iterations 4
DILUPBiCGStab:  Solving for k, Initial residual = 0.214792365038, Final residual = 4.19978225704e-09, No Iterations 6
ExecutionTime = 0.09 s  ClockTime = 0 s

volFieldValue minmaxdomain_scalar write:
--> FOAM Warning : 
    From Foam::label Foam::functionObjects::fieldValues::volFieldValue::writeAll(const Foam::scalarField&, const Foam::scalarField&)
    in file fieldValues/volFieldValue/volFieldValue.C at line 160
    Requested field epsilon not found in database and not processed
--> FOAM Warning : 
    From Foam::label Foam::functionObjects::fieldValues::volFieldValue::writeAll(const Foam::scalarField&, const Foam::scalarField&)
    in file fieldValues/volFieldValue/volFieldValue.C at line 160
    Requested field nuTilda not found in database and not processed

volFieldValue minmaxdomain_vector write:

volFieldValue mindomain_scalar write:
    min(region0) of p = 0.000610612033226
    min(region0) of k = 2.34748216926e-05
    min(region0) of omega = 2.40517286687
    min(region0) of nut = 1.25148426447e-08
--> FOAM Warning : 
    From Foam::label Foam::functionObjects::fieldValues::volFieldValue::writeAll(const Foam::scalarField&, const Foam::scalarField&)
    in file fieldValues/volFieldValue/volFieldValue.C at line 160
    Requested field epsilon not found in database and not processed
--> FOAM Warning : 
    From Foam::label Foam::functionObjects::fieldValues::volFieldValue::writeAll(const Foam::scalarField&, const Foam::scalarField&)
    in file fieldValues/volFieldValue/volFieldValue.C at line 160
    Requested field nuTilda not found in database and not processed

volFieldValue mindomain_vector write:

volFieldValue maxdomain_scalar write:
    max(region0) of p = 0.197517746773
    max(region0) of k = 0.0025539622765
    max(region0) of omega = 9064.97042867
    max(region0) of nut = 2.41941298216e-05
--> FOAM Warning : 
    From Foam::label Foam::functionObjects::fieldValues::volFieldValue::writeAll(const Foam::scalarField&, const Foam::scalarField&)
    in file fieldValues/volFieldValue/volFieldValue.C at line 160
    Requested field epsilon not found in database and not processed
--> FOAM Warning : 
    From Foam::label Foam::functionObjects::fieldValues::volFieldValue::writeAll(const Foam::scalarField&, const Foam::scalarField&)
    in file fieldValues/volFieldValue/volFieldValue.C at line 160
    Requested field nuTilda not found in database and not processed

volFieldValue maxdomain_vector write:

Time = 8

DILUPBiCGStab:  Solving for Ux, Initial residual = 0.0137981408016, Final residual = 3.82303361892e-09, No Iterations 7
DILUPBiCGStab:  Solving for Uy, Initial residual = 0.191572851174, Final residual = 3.44577486515e-09, No Iterations 9
DICPCG:  Solving for p, Initial residual = 0.0442689126121, Final residual = 1.40540488689e-05, No Iterations 101
DICPCG:  Solving for p, Initial residual = 1.4169222245e-05, Final residual = 9.02995256301e-09, No Iterations 5
DICPCG:  Solving for p, Initial residual = 9.0299182938e-09, Final residual = 2.95495782562e-09, No Iterations 3
time step continuity errors : sum local = 8.21512284218e-10, global = 8.64354219392e-11, cumulative = 4.02330596544e-10
DILUPBiCGStab:  Solving for omega, Initial residual = 0.00114022406372, Final residual = 9.97406146716e-09, No Iterations 3
DILUPBiCGStab:  Solving for k, Initial residual = 0.167529531643, Final residual = 5.33326318372e-09, No Iterations 6
ExecutionTime = 0.1 s  ClockTime = 0 s

volFieldValue minmaxdomain_scalar write:
--> FOAM Warning : 
    From Foam::label Foam::functionObjects::fieldValues::volFieldValue::writeAll(const Foam::scalarField&, const Foam::scalarField&)
    in file fieldValues/volFieldValue/volFieldValue.C at line 160
    Requested field epsilon not found in database and not processed
--> FOAM Warning : 
    From Foam::label Foam::functionObjects::fieldValues::volFieldValue::writeAll(const Foam::scalarField&, const Foam::scalarField&)
    in file fieldValues/volFieldValue/volFieldValue.C at line 160
    Requested field nuTilda not found in database and not processed

volFieldValue minmaxdomain_vector write:

volFieldValue mindomain_scalar write:
    min(region0) of p = 0.000587681346295
    min(region0) of k = 1.92276452261e-05
    min(region0) of omega = 2.22960058817
    min(region0) of nut = 9.90822893031e-09
--> FOAM Warning : 
    From Foam::label Foam::functionObjects::fieldValues::volFieldValue::writeAll(const Foam::scalarField&, const Foam::scalarField&)
    in file fieldValues/volFieldValue/volFieldValue.C at line 160
    Requested field epsilon not found in database and not processed
--> FOAM Warning : 
    From Foam::label Foam::functionObjects::fieldValues::volFieldValue::writeAll(const Foam::scalarField&, const Foam::scalarField&)
    in file fieldValues/volFieldValue/volFieldValue.C at line 160
    Requested field nuTilda not found in database and not processed

volFieldValue mindomain_vector write:

volFieldValue maxdomain_scalar write:
    max(region0) of p = 0.197653700849
    max(region0) of k = 0.00257870533131
    max(region0) of omega = 9065.21008773
    max(region0) of nut = 2.48238611258e-05
--> FOAM Warning : 
    From Foam::label Foam::functionObjects::fieldValues::volFieldValue::writeAll(const Foam::scalarField&, const Foam::scalarField&)
    in file fieldValues/volFieldValue/volFieldValue.C at line 160
    Requested field epsilon not found in database and not processed
--> FOAM Warning : 
    From Foam::label Foam::functionObjects::fieldValues::volFieldValue::writeAll(const Foam::scalarField&, const Foam::scalarField&)
    in file fieldValues/volFieldValue/volFieldValue.C at line 160
    Requested field nuTilda not found in database and not processed

volFieldValue maxdomain_vector write:

Time = 9

DILUPBiCGStab:  Solving for Ux, Initial residual = 0.0118207311722, Final residual = 9.07653241512e-09, No Iterations 7
DILUPBiCGStab:  Solving for Uy, Initial residual = 0.179168635217, Final residual = 7.06645930245e-09, No Iterations 8
DICPCG:  Solving for p, Initial residual = 0.0419873624472, Final residual = 1.03847460826e-05, No Iterations 101
DICPCG:  Solving for p, Initial residual = 1.04311003491e-05, Final residual = 9.78708969845e-09, No Iterations 7
DICPCG:  Solving for p, Initial residual = 9.7870358093e-09, Final residual = 1.07864476724e-09, No Iterations 3
time step continuity errors : sum local = 2.99324340889e-10, global = 1.98356078311e-11, cumulative = 4.22166204375e-10
DILUPBiCGStab:  Solving for omega, Initial residual = 0.000511761072261, Final residual = 6.16656199947e-09, No Iterations 3
DILUPBiCGStab:  Solving for k, Initial residual = 0.110789661567, Final residual = 3.56790226812e-09, No Iterations 6
ExecutionTime = 0.11 s  ClockTime = 0 s

volFieldValue minmaxdomain_scalar write:
--> FOAM Warning : 
    From Foam::label Foam::functionObjects::fieldValues::volFieldValue::writeAll(const Foam::scalarField&, const Foam::scalarField&)
    in file fieldValues/volFieldValue/volFieldValue.C at line 160
    Requested field epsilon not found in database and not processed
--> FOAM Warning : 
    From Foam::label Foam::functionObjects::fieldValues::volFieldValue::writeAll(const Foam::scalarField&, const Foam::scalarField&)
    in file fieldValues/volFieldValue/volFieldValue.C at line 160
    Requested field nuTilda not found in database and not processed

volFieldValue minmaxdomain_vector write:

volFieldValue mindomain_scalar write:
    min(region0) of p = 0.00056944844473
    min(region0) of k = 1.63117745305e-05
    min(region0) of omega = 2.09279958019
    min(region0) of nut = 8.18141430102e-09
--> FOAM Warning : 
    From Foam::label Foam::functionObjects::fieldValues::volFieldValue::writeAll(const Foam::scalarField&, const Foam::scalarField&)
    in file fieldValues/volFieldValue/volFieldValue.C at line 160
    Requested field epsilon not found in database and not processed
--> FOAM Warning : 
    From Foam::label Foam::functionObjects::fieldValues::volFieldValue::writeAll(const Foam::scalarField&, const Foam::scalarField&)
    in file fieldValues/volFieldValue/volFieldValue.C at line 160
    Requested field nuTilda not found in database and not processed

volFieldValue mindomain_vector write:

volFieldValue maxdomain_scalar write:
    max(region0) of p = 0.198426956951
    max(region0) of k = 0.00259512870386
    max(region0) of omega = 9065.36314449
    max(region0) of nut = 2.53166729175e-05
--> FOAM Warning : 
    From Foam::label Foam::functionObjects::fieldValues::volFieldValue::writeAll(const Foam::scalarField&, const Foam::scalarField&)
    in file fieldValues/volFieldValue/volFieldValue.C at line 160
    Requested field epsilon not found in database and not processed
--> FOAM Warning : 
    From Foam::label Foam::functionObjects::fieldValues::volFieldValue::writeAll(const Foam::scalarField&, const Foam::scalarField&)
    in file fieldValues/volFieldValue/volFieldValue.C at line 160
    Requested field nuTilda not found in database and not processed

volFieldValue maxdomain_vector write:

Time = 10

DILUPBiCGStab:  Solving for Ux, Initial residual = 0.0102679965281, Final residual = 3.56334650907e-09, No Iterations 7
DILUPBiCGStab:  Solving for Uy, Initial residual = 0.167693629932, Final residual = 1.20227986103e-09, No Iterations 9
DICPCG:  Solving for p, Initial residual = 0.0397991988019, Final residual = 3.74756752137e-05, No Iterations 100
DICPCG:  Solving for p, Initial residual = 3.75184902164e-05, Final residual = 3.1369424028e-08, No Iterations 7
DICPCG:  Solving for p, Initial residual = 3.13695502775e-08, Final residual = 6.65815156034e-09, No Iterations 3
time step continuity errors : sum local = 1.84523560587e-09, global = 4.01308901672e-10, cumulative = 8.23475106047e-10
DILUPBiCGStab:  Solving for omega, Initial residual = 0.000441256636419, Final residual = 4.21730507991e-09, No Iterations 3
DILUPBiCGStab:  Solving for k, Initial residual = 0.0847840516089, Final residual = 7.8648885557e-09, No Iterations 5
ExecutionTime = 0.12 s  ClockTime = 0 s

volFieldValue minmaxdomain_scalar write:
--> FOAM Warning : 
    From Foam::label Foam::functionObjects::fieldValues::volFieldValue::writeAll(const Foam::scalarField&, const Foam::scalarField&)
    in file fieldValues/volFieldValue/volFieldValue.C at line 160
    Requested field epsilon not found in database and not processed
--> FOAM Warning : 
    From Foam::label Foam::functionObjects::fieldValues::volFieldValue::writeAll(const Foam::scalarField&, const Foam::scalarField&)
    in file fieldValues/volFieldValue/volFieldValue.C at line 160
    Requested field nuTilda not found in database and not processed

volFieldValue minmaxdomain_vector write:

volFieldValue mindomain_scalar write:
    min(region0) of p = 0.000554893080083
    min(region0) of k = 1.48267033845e-05
    min(region0) of omega = 1.9872990131
    min(region0) of nut = 6.98989223678e-09
--> FOAM Warning : 
    From Foam::label Foam::functionObjects::fieldValues::volFieldValue::writeAll(const Foam::scalarField&, const Foam::scalarField&)
    in file fieldValues/volFieldValue/volFieldValue.C at line 160
    Requested field epsilon not found in database and not processed
--> FOAM Warning : 
    From Foam::label Foam::functionObjects::fieldValues::volFieldValue::writeAll(const Foam::scalarField&, const Foam::scalarField&)
    in file fieldValues/volFieldValue/volFieldValue.C at line 160
    Requested field nuTilda not found in database and not processed

volFieldValue mindomain_vector write:

volFieldValue maxdomain_scalar write:
    max(region0) of p = 0.199740317519
    max(region0) of k = 0.00260610188653
    max(region0) of omega = 9065.46473553
    max(region0) of nut = 2.55856880574e-05
--> FOAM Warning : 
    From Foam::label Foam::functionObjects::fieldValues::volFieldValue::writeAll(const Foam::scalarField&, const Foam::scalarField&)
    in file fieldValues/volFieldValue/volFieldValue.C at line 160
    Requested field epsilon not found in database and not processed
--> FOAM Warning : 
    From Foam::label Foam::functionObjects::fieldValues::volFieldValue::writeAll(const Foam::scalarField&, const Foam::scalarField&)
    in file fieldValues/volFieldValue/volFieldValue.C at line 160
    Requested field nuTilda not found in database and not processed

volFieldValue maxdomain_vector write:

Time = 11

DILUPBiCGStab:  Solving for Ux, Initial residual = 0.00899746411215, Final residual = 9.35280962209e-09, No Iterations 6
DILUPBiCGStab:  Solving for Uy, Initial residual = 0.155663000277, Final residual = 4.66452912337e-09, No Iterations 8
DICPCG:  Solving for p, Initial residual = 0.0372758305722, Final residual = 2.09269379293e-05, No Iterations 90
DICPCG:  Solving for p, Initial residual = 2.08705662751e-05, Final residual = 1.32840869122e-08, No Iterations 100
DICPCG:  Solving for p, Initial residual = 1.32904445352e-08, Final residual = 1.67665250861e-10, No Iterations 3
time step continuity errors : sum local = 4.6496892112e-11, global = 2.59409132852e-14, cumulative = 8.2350104696e-10
DILUPBiCGStab:  Solving for omega, Initial residual = 0.000202039416051, Final residual = 2.62526700219e-09, No Iterations 3
DILUPBiCGStab:  Solving for k, Initial residual = 0.0741007446803, Final residual = 6.66581415034e-09, No Iterations 5
ExecutionTime = 0.13 s  ClockTime = 0 s

volFieldValue minmaxdomain_scalar write:
--> FOAM Warning : 
    From Foam::label Foam::functionObjects::fieldValues::volFieldValue::writeAll(const Foam::scalarField&, const Foam::scalarField&)
    in file fieldValues/volFieldValue/volFieldValue.C at line 160
    Requested field epsilon not found in database and not processed
--> FOAM Warning : 
    From Foam::label Foam::functionObjects::fieldValues::volFieldValue::writeAll(const Foam::scalarField&, const Foam::scalarField&)
    in file fieldValues/volFieldValue/volFieldValue.C at line 160
    Requested field nuTilda not found in database and not processed

volFieldValue minmaxdomain_vector write:

volFieldValue mindomain_scalar write:
    min(region0) of p = 0.000543641907948
    min(region0) of k = 1.3945008255e-05
    min(region0) of omega = 1.90763396956
    min(region0) of nut = 6.1449350893e-09
--> FOAM Warning : 
    From Foam::label Foam::functionObjects::fieldValues::volFieldValue::writeAll(const Foam::scalarField&, const Foam::scalarField&)
    in file fieldValues/volFieldValue/volFieldValue.C at line 160
    Requested field epsilon not found in database and not processed
--> FOAM Warning : 
    From Foam::label Foam::functionObjects::fieldValues::volFieldValue::writeAll(const Foam::scalarField&, const Foam::scalarField&)
    in file fieldValues/volFieldValue/volFieldValue.C at line 160
    Requested field nuTilda not found in database and not processed

volFieldValue mindomain_vector write:

volFieldValue maxdomain_scalar write:
    max(region0) of p = 0.201585525018
    max(region0) of k = 0.00261359388951
    max(region0) of omega = 9065.53261238
    max(region0) of nut = 2.55565824701e-05
--> FOAM Warning : 
    From Foam::label Foam::functionObjects::fieldValues::volFieldValue::writeAll(const Foam::scalarField&, const Foam::scalarField&)
    in file fieldValues/volFieldValue/volFieldValue.C at line 160
    Requested field epsilon not found in database and not processed
--> FOAM Warning : 
    From Foam::label Foam::functionObjects::fieldValues::volFieldValue::writeAll(const Foam::scalarField&, const Foam::scalarField&)
    in file fieldValues/volFieldValue/volFieldValue.C at line 160
    Requested field nuTilda not found in database and not processed

volFieldValue maxdomain_vector write:

Time = 12

DILUPBiCGStab:  Solving for Ux, Initial residual = 0.00794289571719, Final residual = 7.90417645446e-09, No Iterations 6
DILUPBiCGStab:  Solving for Uy, Initial residual = 0.143759880244, Final residual = 5.60473762711e-09, No Iterations 8
DICPCG:  Solving for p, Initial residual = 0.0347726692797, Final residual = 2.61678148875e-05, No Iterations 100
DICPCG:  Solving for p, Initial residual = 2.60214707599e-05, Final residual = 1.73918596743e-08, No Iterations 7
DICPCG:  Solving for p, Initial residual = 1.73918618155e-08, Final residual = 7.72098842023e-09, No Iterations 3
time step continuity errors : sum local = 2.14462614201e-09, global = -7.41438839112e-10, cumulative = 8.20622078479e-11
DILUPBiCGStab:  Solving for omega, Initial residual = 0.000190337306123, Final residual = 1.98714513675e-09, No Iterations 3
DILUPBiCGStab:  Solving for k, Initial residual = 0.0676237660707, Final residual = 9.97601102316e-09, No Iterations 5
ExecutionTime = 0.14 s  ClockTime = 0 s

volFieldValue minmaxdomain_scalar write:
--> FOAM Warning : 
    From Foam::label Foam::functionObjects::fieldValues::volFieldValue::writeAll(const Foam::scalarField&, const Foam::scalarField&)
    in file fieldValues/volFieldValue/volFieldValue.C at line 160
    Requested field epsilon not found in database and not processed
--> FOAM Warning : 
    From Foam::label Foam::functionObjects::fieldValues::volFieldValue::writeAll(const Foam::scalarField&, const Foam::scalarField&)
    in file fieldValues/volFieldValue/volFieldValue.C at line 160
    Requested field nuTilda not found in database and not processed

volFieldValue minmaxdomain_vector write:

volFieldValue mindomain_scalar write:
    min(region0) of p = 0.000535348939437
    min(region0) of k = 1.37458948532e-05
    min(region0) of omega = 1.84963942432
    min(region0) of nut = 5.53642173663e-09
--> FOAM Warning : 
    From Foam::label Foam::functionObjects::fieldValues::volFieldValue::writeAll(const Foam::scalarField&, const Foam::scalarField&)
    in file fieldValues/volFieldValue/volFieldValue.C at line 160
    Requested field epsilon not found in database and not processed
--> FOAM Warning : 
    From Foam::label Foam::functionObjects::fieldValues::volFieldValue::writeAll(const Foam::scalarField&, const Foam::scalarField&)
    in file fieldValues/volFieldValue/volFieldValue.C at line 160
    Requested field nuTilda not found in database and not processed

volFieldValue mindomain_vector write:

volFieldValue maxdomain_scalar write:
    max(region0) of p = 0.203908708539
    max(region0) of k = 0.00261873343822
    max(region0) of omega = 9065.57895539
    max(region0) of nut = 2.5188951899e-05
--> FOAM Warning : 
    From Foam::label Foam::functionObjects::fieldValues::volFieldValue::writeAll(const Foam::scalarField&, const Foam::scalarField&)
    in file fieldValues/volFieldValue/volFieldValue.C at line 160
    Requested field epsilon not found in database and not processed
--> FOAM Warning : 
    From Foam::label Foam::functionObjects::fieldValues::volFieldValue::writeAll(const Foam::scalarField&, const Foam::scalarField&)
    in file fieldValues/volFieldValue/volFieldValue.C at line 160
    Requested field nuTilda not found in database and not processed

volFieldValue maxdomain_vector write:

Time = 13

DILUPBiCGStab:  Solving for Ux, Initial residual = 0.00710195133377, Final residual = 6.91706650646e-09, No Iterations 6
DILUPBiCGStab:  Solving for Uy, Initial residual = 0.132540391714, Final residual = 7.6825318147e-09, No Iterations 8
DICPCG:  Solving for p, Initial residual = 0.0322480832991, Final residual = 2.77836172681e-05, No Iterations 99
DICPCG:  Solving for p, Initial residual = 2.75281846381e-05, Final residual = 2.28003088936e-08, No Iterations 11
DICPCG:  Solving for p, Initial residual = 2.2800349126e-08, Final residual = 9.17856390064e-09, No Iterations 72
time step continuity errors : sum local = 2.55842493506e-09, global = 7.08751906589e-12, cumulative = 8.91497269138e-11
DILUPBiCGStab:  Solving for omega, Initial residual = 0.000105054367567, Final residual = 1.5052693231e-09, No Iterations 3
DILUPBiCGStab:  Solving for k, Initial residual = 0.0638748001964, Final residual = 9.16117883307e-10, No Iterations 6
ExecutionTime = 0.15 s  ClockTime = 0 s

volFieldValue minmaxdomain_scalar write:
--> FOAM Warning : 
    From Foam::label Foam::functionObjects::fieldValues::volFieldValue::writeAll(const Foam::scalarField&, const Foam::scalarField&)
    in file fieldValues/volFieldValue/volFieldValue.C at line 160
    Requested field epsilon not found in database and not processed
--> FOAM Warning : 
    From Foam::label Foam::functionObjects::fieldValues::volFieldValue::writeAll(const Foam::scalarField&, const Foam::scalarField&)
    in file fieldValues/volFieldValue/volFieldValue.C at line 160
    Requested field nuTilda not found in database and not processed

volFieldValue minmaxdomain_vector write:

volFieldValue mindomain_scalar write:
    min(region0) of p = 0.000530199708629
    min(region0) of k = 1.39960909883e-05
    min(region0) of omega = 1.81014478229
    min(region0) of nut = 5.10007115373e-09
--> FOAM Warning : 
    From Foam::label Foam::functionObjects::fieldValues::volFieldValue::writeAll(const Foam::scalarField&, const Foam::scalarField&)
    in file fieldValues/volFieldValue/volFieldValue.C at line 160
    Requested field epsilon not found in database and not processed
--> FOAM Warning : 
    From Foam::label Foam::functionObjects::fieldValues::volFieldValue::writeAll(const Foam::scalarField&, const Foam::scalarField&)
    in file fieldValues/volFieldValue/volFieldValue.C at line 160
    Requested field nuTilda not found in database and not processed

volFieldValue mindomain_vector write:

volFieldValue maxdomain_scalar write:
    max(region0) of p = 0.206773881752
    max(region0) of k = 0.0026223339151
    max(region0) of omega = 9065.61074677
    max(region0) of nut = 2.4492112307e-05
--> FOAM Warning : 
    From Foam::label Foam::functionObjects::fieldValues::volFieldValue::writeAll(const Foam::scalarField&, const Foam::scalarField&)
    in file fieldValues/volFieldValue/volFieldValue.C at line 160
    Requested field epsilon not found in database and not processed
--> FOAM Warning : 
    From Foam::label Foam::functionObjects::fieldValues::volFieldValue::writeAll(const Foam::scalarField&, const Foam::scalarField&)
    in file fieldValues/volFieldValue/volFieldValue.C at line 160
    Requested field nuTilda not found in database and not processed

volFieldValue maxdomain_vector write:

Time = 14

DILUPBiCGStab:  Solving for Ux, Initial residual = 0.00644979625788, Final residual = 6.35889320656e-09, No Iterations 6
DILUPBiCGStab:  Solving for Uy, Initial residual = 0.121802886112, Final residual = 9.85310743154e-09, No Iterations 8
DICPCG:  Solving for p, Initial residual = 0.0298669631546, Final residual = 2.13881656042e-05, No Iterations 100
DICPCG:  Solving for p, Initial residual = 2.11049872354e-05, Final residual = 1.44055000618e-08, No Iterations 7
DICPCG:  Solving for p, Initial residual = 1.4405532076e-08, Final residual = 8.65563875047e-09, No Iterations 5
time step continuity errors : sum local = 2.42564096907e-09, global = -3.25462852541e-10, cumulative = -2.36313125627e-10
DILUPBiCGStab:  Solving for omega, Initial residual = 9.61530998413e-05, Final residual = 1.32117550446e-09, No Iterations 3
DILUPBiCGStab:  Solving for k, Initial residual = 0.0607673782732, Final residual = 4.91260184589e-09, No Iterations 5
ExecutionTime = 0.16 s  ClockTime = 0 s

volFieldValue minmaxdomain_scalar write:
--> FOAM Warning : 
    From Foam::label Foam::functionObjects::fieldValues::volFieldValue::writeAll(const Foam::scalarField&, const Foam::scalarField&)
    in file fieldValues/volFieldValue/volFieldValue.C at line 160
    Requested field epsilon not found in database and not processed
--> FOAM Warning : 
    From Foam::label Foam::functionObjects::fieldValues::volFieldValue::writeAll(const Foam::scalarField&, const Foam::scalarField&)
    in file fieldValues/volFieldValue/volFieldValue.C at line 160
    Requested field nuTilda not found in database and not processed

volFieldValue minmaxdomain_vector write:

volFieldValue mindomain_scalar write:
    min(region0) of p = 0.000528555134968
    min(region0) of k = 1.47763192361e-05
    min(region0) of omega = 1.7869456073
    min(region0) of nut = 4.7965859468e-09
--> FOAM Warning : 
    From Foam::label Foam::functionObjects::fieldValues::volFieldValue::writeAll(const Foam::scalarField&, const Foam::scalarField&)
    in file fieldValues/volFieldValue/volFieldValue.C at line 160
    Requested field epsilon not found in database and not processed
--> FOAM Warning : 
    From Foam::label Foam::functionObjects::fieldValues::volFieldValue::writeAll(const Foam::scalarField&, const Foam::scalarField&)
    in file fieldValues/volFieldValue/volFieldValue.C at line 160
    Requested field nuTilda not found in database and not processed

volFieldValue mindomain_vector write:

volFieldValue maxdomain_scalar write:
    max(region0) of p = 0.210214330719
    max(region0) of k = 0.00262489020822
    max(region0) of omega = 9065.63301795
    max(region0) of nut = 2.35272273781e-05
--> FOAM Warning : 
    From Foam::label Foam::functionObjects::fieldValues::volFieldValue::writeAll(const Foam::scalarField&, const Foam::scalarField&)
    in file fieldValues/volFieldValue/volFieldValue.C at line 160
    Requested field epsilon not found in database and not processed
--> FOAM Warning : 
    From Foam::label Foam::functionObjects::fieldValues::volFieldValue::writeAll(const Foam::scalarField&, const Foam::scalarField&)
    in file fieldValues/volFieldValue/volFieldValue.C at line 160
    Requested field nuTilda not found in database and not processed

volFieldValue maxdomain_vector write:

Time = 15

DILUPBiCGStab:  Solving for Ux, Initial residual = 0.0060826029862, Final residual = 5.98062716792e-09, No Iterations 6
DILUPBiCGStab:  Solving for Uy, Initial residual = 0.111785784816, Final residual = 9.45310547547e-09, No Iterations 7
DICPCG:  Solving for p, Initial residual = 0.0276077227952, Final residual = 1.8287981766e-05, No Iterations 95
DICPCG:  Solving for p, Initial residual = 1.79669345995e-05, Final residual = 1.59215544944e-08, No Iterations 24
DICPCG:  Solving for p, Initial residual = 1.59215984504e-08, Final residual = 6.6303903538e-09, No Iterations 79
time step continuity errors : sum local = 1.87168520946e-09, global = 1.02239388106e-11, cumulative = -2.26089186817e-10
DILUPBiCGStab:  Solving for omega, Initial residual = 8.33048171221e-05, Final residual = 1.25629778163e-09, No Iterations 3
DILUPBiCGStab:  Solving for k, Initial residual = 0.0579928484813, Final residual = 9.28718712931e-09, No Iterations 5
ExecutionTime = 0.18 s  ClockTime = 0 s

volFieldValue minmaxdomain_scalar write:
--> FOAM Warning : 
    From Foam::label Foam::functionObjects::fieldValues::volFieldValue::writeAll(const Foam::scalarField&, const Foam::scalarField&)
    in file fieldValues/volFieldValue/volFieldValue.C at line 160
    Requested field epsilon not found in database and not processed
--> FOAM Warning : 
    From Foam::label Foam::functionObjects::fieldValues::volFieldValue::writeAll(const Foam::scalarField&, const Foam::scalarField&)
    in file fieldValues/volFieldValue/volFieldValue.C at line 160
    Requested field nuTilda not found in database and not processed

volFieldValue minmaxdomain_vector write:

volFieldValue mindomain_scalar write:
    min(region0) of p = 0.000531211287591
    min(region0) of k = 1.60578633915e-05
    min(region0) of omega = 1.76007128531
    min(region0) of nut = 4.60288806847e-09
--> FOAM Warning : 
    From Foam::label Foam::functionObjects::fieldValues::volFieldValue::writeAll(const Foam::scalarField&, const Foam::scalarField&)
    in file fieldValues/volFieldValue/volFieldValue.C at line 160
    Requested field epsilon not found in database and not processed
--> FOAM Warning : 
    From Foam::label Foam::functionObjects::fieldValues::volFieldValue::writeAll(const Foam::scalarField&, const Foam::scalarField&)
    in file fieldValues/volFieldValue/volFieldValue.C at line 160
    Requested field nuTilda not found in database and not processed

volFieldValue mindomain_vector write:

volFieldValue maxdomain_scalar write:
    max(region0) of p = 0.214323489942
    max(region0) of k = 0.00276899955274
    max(region0) of omega = 9065.64883017
    max(region0) of nut = 2.56892710982e-05
--> FOAM Warning : 
    From Foam::label Foam::functionObjects::fieldValues::volFieldValue::writeAll(const Foam::scalarField&, const Foam::scalarField&)
    in file fieldValues/volFieldValue/volFieldValue.C at line 160
    Requested field epsilon not found in database and not processed
--> FOAM Warning : 
    From Foam::label Foam::functionObjects::fieldValues::volFieldValue::writeAll(const Foam::scalarField&, const Foam::scalarField&)
    in file fieldValues/volFieldValue/volFieldValue.C at line 160
    Requested field nuTilda not found in database and not processed

volFieldValue maxdomain_vector write:

Time = 16

DILUPBiCGStab:  Solving for Ux, Initial residual = 0.00616796514015, Final residual = 5.11657120546e-09, No Iterations 6
DILUPBiCGStab:  Solving for Uy, Initial residual = 0.102874031737, Final residual = 9.15768696325e-09, No Iterations 7
DICPCG:  Solving for p, Initial residual = 0.0255179435371, Final residual = 1.6593342265e-05, No Iterations 100
DICPCG:  Solving for p, Initial residual = 1.62230178302e-05, Final residual = 1.49702134416e-08, No Iterations 10
DICPCG:  Solving for p, Initial residual = 1.4970230242e-08, Final residual = 6.01076542725e-09, No Iterations 3
time step continuity errors : sum local = 1.71268557427e-09, global = 1.32372755106e-10, cumulative = -9.37164317103e-11
DILUPBiCGStab:  Solving for omega, Initial residual = 7.13649641595e-05, Final residual = 2.85123410232e-10, No Iterations 4
DILUPBiCGStab:  Solving for k, Initial residual = 0.0549358245278, Final residual = 5.34106277141e-09, No Iterations 5
ExecutionTime = 0.19 s  ClockTime = 0 s

volFieldValue minmaxdomain_scalar write:
--> FOAM Warning : 
    From Foam::label Foam::functionObjects::fieldValues::volFieldValue::writeAll(const Foam::scalarField&, const Foam::scalarField&)
    in file fieldValues/volFieldValue/volFieldValue.C at line 160
    Requested field epsilon not found in database and not processed
--> FOAM Warning : 
    From Foam::label Foam::functionObjects::fieldValues::volFieldValue::writeAll(const Foam::scalarField&, const Foam::scalarField&)
    in file fieldValues/volFieldValue/volFieldValue.C at line 160
    Requested field nuTilda not found in database and not processed

volFieldValue minmaxdomain_vector write:

volFieldValue mindomain_scalar write:
    min(region0) of p = 0.000538968917246
    min(region0) of k = 1.79452403859e-05
    min(region0) of omega = 1.73839596574
    min(region0) of nut = 4.50541289643e-09
--> FOAM Warning : 
    From Foam::label Foam::functionObjects::fieldValues::volFieldValue::writeAll(const Foam::scalarField&, const Foam::scalarField&)
    in file fieldValues/volFieldValue/volFieldValue.C at line 160
    Requested field epsilon not found in database and not processed
--> FOAM Warning : 
    From Foam::label Foam::functionObjects::fieldValues::volFieldValue::writeAll(const Foam::scalarField&, const Foam::scalarField&)
    in file fieldValues/volFieldValue/volFieldValue.C at line 160
    Requested field nuTilda not found in database and not processed

volFieldValue mindomain_vector write:

volFieldValue maxdomain_scalar write:
    max(region0) of p = 0.219184876526
    max(region0) of k = 0.00330753507821
    max(region0) of omega = 9065.66030687
    max(region0) of nut = 3.28682467881e-05
--> FOAM Warning : 
    From Foam::label Foam::functionObjects::fieldValues::volFieldValue::writeAll(const Foam::scalarField&, const Foam::scalarField&)
    in file fieldValues/volFieldValue/volFieldValue.C at line 160
    Requested field epsilon not found in database and not processed
--> FOAM Warning : 
    From Foam::label Foam::functionObjects::fieldValues::volFieldValue::writeAll(const Foam::scalarField&, const Foam::scalarField&)
    in file fieldValues/volFieldValue/volFieldValue.C at line 160
    Requested field nuTilda not found in database and not processed

volFieldValue maxdomain_vector write:

Time = 17

DILUPBiCGStab:  Solving for Ux, Initial residual = 0.00654582036914, Final residual = 4.32635305491e-09, No Iterations 6
DILUPBiCGStab:  Solving for Uy, Initial residual = 0.0949236323587, Final residual = 7.26128417065e-09, No Iterations 7
DICPCG:  Solving for p, Initial residual = 0.0235904641576, Final residual = 1.44889373483e-05, No Iterations 100
DICPCG:  Solving for p, Initial residual = 1.40817870569e-05, Final residual = 1.21018057298e-08, No Iterations 6
DICPCG:  Solving for p, Initial residual = 1.21018461099e-08, Final residual = 6.92639098772e-09, No Iterations 3
time step continuity errors : sum local = 1.99936727524e-09, global = -1.7859660702e-10, cumulative = -2.7231303873e-10
DILUPBiCGStab:  Solving for omega, Initial residual = 9.15066964303e-05, Final residual = 2.90433439614e-09, No Iterations 3
DILUPBiCGStab:  Solving for k, Initial residual = 0.0517070578771, Final residual = 4.90135591284e-09, No Iterations 5
ExecutionTime = 0.2 s  ClockTime = 0 s

volFieldValue minmaxdomain_scalar write:
--> FOAM Warning : 
    From Foam::label Foam::functionObjects::fieldValues::volFieldValue::writeAll(const Foam::scalarField&, const Foam::scalarField&)
    in file fieldValues/volFieldValue/volFieldValue.C at line 160
    Requested field epsilon not found in database and not processed
--> FOAM Warning : 
    From Foam::label Foam::functionObjects::fieldValues::volFieldValue::writeAll(const Foam::scalarField&, const Foam::scalarField&)
    in file fieldValues/volFieldValue/volFieldValue.C at line 160
    Requested field nuTilda not found in database and not processed

volFieldValue minmaxdomain_vector write:

volFieldValue mindomain_scalar write:
    min(region0) of p = 0.000552651086512
    min(region0) of k = 2.05044407397e-05
    min(region0) of omega = 1.7257546774
    min(region0) of nut = 4.49717969165e-09
--> FOAM Warning : 
    From Foam::label Foam::functionObjects::fieldValues::volFieldValue::writeAll(const Foam::scalarField&, const Foam::scalarField&)
    in file fieldValues/volFieldValue/volFieldValue.C at line 160
    Requested field epsilon not found in database and not processed
--> FOAM Warning : 
    From Foam::label Foam::functionObjects::fieldValues::volFieldValue::writeAll(const Foam::scalarField&, const Foam::scalarField&)
    in file fieldValues/volFieldValue/volFieldValue.C at line 160
    Requested field nuTilda not found in database and not processed

volFieldValue mindomain_vector write:

volFieldValue maxdomain_scalar write:
    max(region0) of p = 0.224901407432
    max(region0) of k = 0.00387948048054
    max(region0) of omega = 9065.66877264
    max(region0) of nut = 4.19281629045e-05
--> FOAM Warning : 
    From Foam::label Foam::functionObjects::fieldValues::volFieldValue::writeAll(const Foam::scalarField&, const Foam::scalarField&)
    in file fieldValues/volFieldValue/volFieldValue.C at line 160
    Requested field epsilon not found in database and not processed
--> FOAM Warning : 
    From Foam::label Foam::functionObjects::fieldValues::volFieldValue::writeAll(const Foam::scalarField&, const Foam::scalarField&)
    in file fieldValues/volFieldValue/volFieldValue.C at line 160
    Requested field nuTilda not found in database and not processed

volFieldValue maxdomain_vector write:

Time = 18

DILUPBiCGStab:  Solving for Ux, Initial residual = 0.00709473449707, Final residual = 3.78121968995e-09, No Iterations 6
DILUPBiCGStab:  Solving for Uy, Initial residual = 0.0875655064362, Final residual = 6.44292104869e-09, No Iterations 7
DICPCG:  Solving for p, Initial residual = 0.021744921393, Final residual = 1.23707560125e-05, No Iterations 100
DICPCG:  Solving for p, Initial residual = 1.1956579656e-05, Final residual = 1.014639294e-08, No Iterations 6
DICPCG:  Solving for p, Initial residual = 1.01464445059e-08, Final residual = 4.11386025089e-09, No Iterations 3
time step continuity errors : sum local = 1.20605246808e-09, global = -1.29973685283e-10, cumulative = -4.02286724013e-10
DILUPBiCGStab:  Solving for omega, Initial residual = 8.98316962802e-05, Final residual = 2.67973772699e-09, No Iterations 3
DILUPBiCGStab:  Solving for k, Initial residual = 0.048292257047, Final residual = 4.47455877158e-09, No Iterations 5
ExecutionTime = 0.21 s  ClockTime = 0 s

volFieldValue minmaxdomain_scalar write:
--> FOAM Warning : 
    From Foam::label Foam::functionObjects::fieldValues::volFieldValue::writeAll(const Foam::scalarField&, const Foam::scalarField&)
    in file fieldValues/volFieldValue/volFieldValue.C at line 160
    Requested field epsilon not found in database and not processed
--> FOAM Warning : 
    From Foam::label Foam::functionObjects::fieldValues::volFieldValue::writeAll(const Foam::scalarField&, const Foam::scalarField&)
    in file fieldValues/volFieldValue/volFieldValue.C at line 160
    Requested field nuTilda not found in database and not processed

volFieldValue minmaxdomain_vector write:

volFieldValue mindomain_scalar write:
    min(region0) of p = 0.000572927462492
    min(region0) of k = 2.38584236724e-05
    min(region0) of omega = 1.7233784536
    min(region0) of nut = 4.5749685677e-09
--> FOAM Warning : 
    From Foam::label Foam::functionObjects::fieldValues::volFieldValue::writeAll(const Foam::scalarField&, const Foam::scalarField&)
    in file fieldValues/volFieldValue/volFieldValue.C at line 160
    Requested field epsilon not found in database and not processed
--> FOAM Warning : 
    From Foam::label Foam::functionObjects::fieldValues::volFieldValue::writeAll(const Foam::scalarField&, const Foam::scalarField&)
    in file fieldValues/volFieldValue/volFieldValue.C at line 160
    Requested field nuTilda not found in database and not processed

volFieldValue mindomain_vector write:

volFieldValue maxdomain_scalar write:
    max(region0) of p = 0.231548551755
    max(region0) of k = 0.00446441903988
    max(region0) of omega = 9065.67513892
    max(region0) of nut = 5.33664840958e-05
--> FOAM Warning : 
    From Foam::label Foam::functionObjects::fieldValues::volFieldValue::writeAll(const Foam::scalarField&, const Foam::scalarField&)
    in file fieldValues/volFieldValue/volFieldValue.C at line 160
    Requested field epsilon not found in database and not processed
--> FOAM Warning : 
    From Foam::label Foam::functionObjects::fieldValues::volFieldValue::writeAll(const Foam::scalarField&, const Foam::scalarField&)
    in file fieldValues/volFieldValue/volFieldValue.C at line 160
    Requested field nuTilda not found in database and not processed

volFieldValue maxdomain_vector write:

Time = 19

DILUPBiCGStab:  Solving for Ux, Initial residual = 0.00769611303349, Final residual = 9.74068802644e-09, No Iterations 6
DILUPBiCGStab:  Solving for Uy, Initial residual = 0.0807029036438, Final residual = 6.9058333933e-09, No Iterations 7
DICPCG:  Solving for p, Initial residual = 0.0200770125161, Final residual = 1.02778610166e-05, No Iterations 100
DICPCG:  Solving for p, Initial residual = 9.88002125377e-06, Final residual = 8.09471611647e-09, No Iterations 15
DICPCG:  Solving for p, Initial residual = 8.09478474508e-09, Final residual = 2.96418106779e-09, No Iterations 3
time step continuity errors : sum local = 8.84738688912e-10, global = -4.76555095998e-11, cumulative = -4.49942233613e-10
DILUPBiCGStab:  Solving for omega, Initial residual = 0.000103734298554, Final residual = 3.79962879273e-09, No Iterations 3
DILUPBiCGStab:  Solving for k, Initial residual = 0.0445234796328, Final residual = 4.5335459623e-09, No Iterations 5
ExecutionTime = 0.22 s  ClockTime = 0 s

volFieldValue minmaxdomain_scalar write:
--> FOAM Warning : 
    From Foam::label Foam::functionObjects::fieldValues::volFieldValue::writeAll(const Foam::scalarField&, const Foam::scalarField&)
    in file fieldValues/volFieldValue/volFieldValue.C at line 160
    Requested field epsilon not found in database and not processed
--> FOAM Warning : 
    From Foam::label Foam::functionObjects::fieldValues::volFieldValue::writeAll(const Foam::scalarField&, const Foam::scalarField&)
    in file fieldValues/volFieldValue/volFieldValue.C at line 160
    Requested field nuTilda not found in database and not processed

volFieldValue minmaxdomain_vector write:

volFieldValue mindomain_scalar write:
    min(region0) of p = 0.000600364849015
    min(region0) of k = 2.6388886883e-05
    min(region0) of omega = 1.73439454276
    min(region0) of nut = 4.73776497366e-09
--> FOAM Warning : 
    From Foam::label Foam::functionObjects::fieldValues::volFieldValue::writeAll(const Foam::scalarField&, const Foam::scalarField&)
    in file fieldValues/volFieldValue/volFieldValue.C at line 160
    Requested field epsilon not found in database and not processed
--> FOAM Warning : 
    From Foam::label Foam::functionObjects::fieldValues::volFieldValue::writeAll(const Foam::scalarField&, const Foam::scalarField&)
    in file fieldValues/volFieldValue/volFieldValue.C at line 160
    Requested field nuTilda not found in database and not processed

volFieldValue mindomain_vector write:

volFieldValue maxdomain_scalar write:
    max(region0) of p = 0.239173858345
    max(region0) of k = 0.00508894457535
    max(region0) of omega = 9065.67999241
    max(region0) of nut = 6.70877574929e-05
--> FOAM Warning : 
    From Foam::label Foam::functionObjects::fieldValues::volFieldValue::writeAll(const Foam::scalarField&, const Foam::scalarField&)
    in file fieldValues/volFieldValue/volFieldValue.C at line 160
    Requested field epsilon not found in database and not processed
--> FOAM Warning : 
    From Foam::label Foam::functionObjects::fieldValues::volFieldValue::writeAll(const Foam::scalarField&, const Foam::scalarField&)
    in file fieldValues/volFieldValue/volFieldValue.C at line 160
    Requested field nuTilda not found in database and not processed

volFieldValue maxdomain_vector write:

Time = 20

DILUPBiCGStab:  Solving for Ux, Initial residual = 0.00826621902284, Final residual = 9.92991056128e-09, No Iterations 6
DILUPBiCGStab:  Solving for Uy, Initial residual = 0.074384848208, Final residual = 6.30387353745e-09, No Iterations 7
DICPCG:  Solving for p, Initial residual = 0.0184636409159, Final residual = 7.51567310063e-06, No Iterations 100
DICPCG:  Solving for p, Initial residual = 7.18956141477e-06, Final residual = 6.53013276883e-09, No Iterations 8
DICPCG:  Solving for p, Initial residual = 6.53013592508e-09, Final residual = 1.64077605546e-09, No Iterations 3
time step continuity errors : sum local = 4.99613968713e-10, global = 4.95065738374e-11, cumulative = -4.00435659776e-10
DILUPBiCGStab:  Solving for omega, Initial residual = 0.000104624490584, Final residual = 5.47907217027e-09, No Iterations 3
DILUPBiCGStab:  Solving for k, Initial residual = 0.0405344923124, Final residual = 9.18615843262e-09, No Iterations 5
ExecutionTime = 0.24 s  ClockTime = 0 s

volFieldValue minmaxdomain_scalar write:
--> FOAM Warning : 
    From Foam::label Foam::functionObjects::fieldValues::volFieldValue::writeAll(const Foam::scalarField&, const Foam::scalarField&)
    in file fieldValues/volFieldValue/volFieldValue.C at line 160
    Requested field epsilon not found in database and not processed
--> FOAM Warning : 
    From Foam::label Foam::functionObjects::fieldValues::volFieldValue::writeAll(const Foam::scalarField&, const Foam::scalarField&)
    in file fieldValues/volFieldValue/volFieldValue.C at line 160
    Requested field nuTilda not found in database and not processed

volFieldValue minmaxdomain_vector write:

volFieldValue mindomain_scalar write:
    min(region0) of p = 0.000635357872747
    min(region0) of k = 2.72399901269e-05
    min(region0) of omega = 1.76296257871
    min(region0) of nut = 4.98497387085e-09
--> FOAM Warning : 
    From Foam::label Foam::functionObjects::fieldValues::volFieldValue::writeAll(const Foam::scalarField&, const Foam::scalarField&)
    in file fieldValues/volFieldValue/volFieldValue.C at line 160
    Requested field epsilon not found in database and not processed
--> FOAM Warning : 
    From Foam::label Foam::functionObjects::fieldValues::volFieldValue::writeAll(const Foam::scalarField&, const Foam::scalarField&)
    in file fieldValues/volFieldValue/volFieldValue.C at line 160
    Requested field nuTilda not found in database and not processed

volFieldValue mindomain_vector write:

volFieldValue maxdomain_scalar write:
    max(region0) of p = 0.247772910022
    max(region0) of k = 0.00568233577168
    max(region0) of omega = 9065.68374249
    max(region0) of nut = 8.30298488044e-05
--> FOAM Warning : 
    From Foam::label Foam::functionObjects::fieldValues::volFieldValue::writeAll(const Foam::scalarField&, const Foam::scalarField&)
    in file fieldValues/volFieldValue/volFieldValue.C at line 160
    Requested field epsilon not found in database and not processed
--> FOAM Warning : 
    From Foam::label Foam::functionObjects::fieldValues::volFieldValue::writeAll(const Foam::scalarField&, const Foam::scalarField&)
    in file fieldValues/volFieldValue/volFieldValue.C at line 160
    Requested field nuTilda not found in database and not processed

volFieldValue maxdomain_vector write:

Time = 21

DILUPBiCGStab:  Solving for Ux, Initial residual = 0.00873487359246, Final residual = 3.78657634201e-09, No Iterations 6
DILUPBiCGStab:  Solving for Uy, Initial residual = 0.0686940050263, Final residual = 5.98011279193e-09, No Iterations 7
DICPCG:  Solving for p, Initial residual = 0.0169455345078, Final residual = 7.72740301347e-06, No Iterations 99
DICPCG:  Solving for p, Initial residual = 7.36452248484e-06, Final residual = 5.58448116108e-09, No Iterations 8
DICPCG:  Solving for p, Initial residual = 5.5845314358e-09, Final residual = 1.31280696275e-09, No Iterations 3
time step continuity errors : sum local = 4.08178824285e-10, global = 2.2482015363e-11, cumulative = -3.77953644413e-10
DILUPBiCGStab:  Solving for omega, Initial residual = 0.000109074444346, Final residual = 3.19512926755e-10, No Iterations 4
DILUPBiCGStab:  Solving for k, Initial residual = 0.0365188478598, Final residual = 3.61603544363e-09, No Iterations 5
ExecutionTime = 0.25 s  ClockTime = 0 s

volFieldValue minmaxdomain_scalar write:
--> FOAM Warning : 
    From Foam::label Foam::functionObjects::fieldValues::volFieldValue::writeAll(const Foam::scalarField&, const Foam::scalarField&)
    in file fieldValues/volFieldValue/volFieldValue.C at line 160
    Requested field epsilon not found in database and not processed
--> FOAM Warning : 
    From Foam::label Foam::functionObjects::fieldValues::volFieldValue::writeAll(const Foam::scalarField&, const Foam::scalarField&)
    in file fieldValues/volFieldValue/volFieldValue.C at line 160
    Requested field nuTilda not found in database and not processed

volFieldValue minmaxdomain_vector write:

volFieldValue mindomain_scalar write:
    min(region0) of p = 0.000678126160682
    min(region0) of k = 2.77507540978e-05
    min(region0) of omega = 1.76120267089
    min(region0) of nut = 5.31511899548e-09
--> FOAM Warning : 
    From Foam::label Foam::functionObjects::fieldValues::volFieldValue::writeAll(const Foam::scalarField&, const Foam::scalarField&)
    in file fieldValues/volFieldValue/volFieldValue.C at line 160
    Requested field epsilon not found in database and not processed
--> FOAM Warning : 
    From Foam::label Foam::functionObjects::fieldValues::volFieldValue::writeAll(const Foam::scalarField&, const Foam::scalarField&)
    in file fieldValues/volFieldValue/volFieldValue.C at line 160
    Requested field nuTilda not found in database and not processed

volFieldValue mindomain_vector write:

volFieldValue maxdomain_scalar write:
    max(region0) of p = 0.257291760626
    max(region0) of k = 0.00622603580518
    max(region0) of omega = 9065.68666553
    max(region0) of nut = 0.000101617316526
--> FOAM Warning : 
    From Foam::label Foam::functionObjects::fieldValues::volFieldValue::writeAll(const Foam::scalarField&, const Foam::scalarField&)
    in file fieldValues/volFieldValue/volFieldValue.C at line 160
    Requested field epsilon not found in database and not processed
--> FOAM Warning : 
    From Foam::label Foam::functionObjects::fieldValues::volFieldValue::writeAll(const Foam::scalarField&, const Foam::scalarField&)
    in file fieldValues/volFieldValue/volFieldValue.C at line 160
    Requested field nuTilda not found in database and not processed

volFieldValue maxdomain_vector write:

Time = 22

DILUPBiCGStab:  Solving for Ux, Initial residual = 0.00906715025925, Final residual = 4.8173559064e-09, No Iterations 6
DILUPBiCGStab:  Solving for Uy, Initial residual = 0.0635620563336, Final residual = 5.5465419611e-09, No Iterations 7
DICPCG:  Solving for p, Initial residual = 0.0155202987976, Final residual = 1.54688291597e-05, No Iterations 99
DICPCG:  Solving for p, Initial residual = 1.47049098814e-05, Final residual = 1.12019937383e-08, No Iterations 8
DICPCG:  Solving for p, Initial residual = 1.12019126204e-08, Final residual = 5.2224538654e-09, No Iterations 3
time step continuity errors : sum local = 1.65692171452e-09, global = 4.92954393478e-11, cumulative = -3.28658205065e-10
DILUPBiCGStab:  Solving for omega, Initial residual = 0.000106967975113, Final residual = 3.66516420327e-10, No Iterations 4
DILUPBiCGStab:  Solving for k, Initial residual = 0.0325907436877, Final residual = 2.36120685537e-09, No Iterations 5
ExecutionTime = 0.26 s  ClockTime = 0 s

volFieldValue minmaxdomain_scalar write:
--> FOAM Warning : 
    From Foam::label Foam::functionObjects::fieldValues::volFieldValue::writeAll(const Foam::scalarField&, const Foam::scalarField&)
    in file fieldValues/volFieldValue/volFieldValue.C at line 160
    Requested field epsilon not found in database and not processed
--> FOAM Warning : 
    From Foam::label Foam::functionObjects::fieldValues::volFieldValue::writeAll(const Foam::scalarField&, const Foam::scalarField&)
    in file fieldValues/volFieldValue/volFieldValue.C at line 160
    Requested field nuTilda not found in database and not processed

volFieldValue minmaxdomain_vector write:

volFieldValue mindomain_scalar write:
    min(region0) of p = 0.000728718377177
    min(region0) of k = 2.84876691976e-05
    min(region0) of omega = 1.77544819775
    min(region0) of nut = 5.72452439971e-09
--> FOAM Warning : 
    From Foam::label Foam::functionObjects::fieldValues::volFieldValue::writeAll(const Foam::scalarField&, const Foam::scalarField&)
    in file fieldValues/volFieldValue/volFieldValue.C at line 160
    Requested field epsilon not found in database and not processed
--> FOAM Warning : 
    From Foam::label Foam::functionObjects::fieldValues::volFieldValue::writeAll(const Foam::scalarField&, const Foam::scalarField&)
    in file fieldValues/volFieldValue/volFieldValue.C at line 160
    Requested field nuTilda not found in database and not processed

volFieldValue mindomain_vector write:

volFieldValue maxdomain_scalar write:
    max(region0) of p = 0.267630224209
    max(region0) of k = 0.00674273518031
    max(region0) of omega = 9065.68895986
    max(region0) of nut = 0.000122195997638
--> FOAM Warning : 
    From Foam::label Foam::functionObjects::fieldValues::volFieldValue::writeAll(const Foam::scalarField&, const Foam::scalarField&)
    in file fieldValues/volFieldValue/volFieldValue.C at line 160
    Requested field epsilon not found in database and not processed
--> FOAM Warning : 
    From Foam::label Foam::functionObjects::fieldValues::volFieldValue::writeAll(const Foam::scalarField&, const Foam::scalarField&)
    in file fieldValues/volFieldValue/volFieldValue.C at line 160
    Requested field nuTilda not found in database and not processed

volFieldValue maxdomain_vector write:

Time = 23

DILUPBiCGStab:  Solving for Ux, Initial residual = 0.00922358024919, Final residual = 5.45504775769e-09, No Iterations 6
DILUPBiCGStab:  Solving for Uy, Initial residual = 0.0588044617858, Final residual = 4.92360594583e-09, No Iterations 7
DICPCG:  Solving for p, Initial residual = 0.0142146391261, Final residual = 4.57454236733e-06, No Iterations 100
DICPCG:  Solving for p, Initial residual = 4.34202905775e-06, Final residual = 3.41939138104e-09, No Iterations 6
DICPCG:  Solving for p, Initial residual = 3.41935616987e-09, Final residual = 3.0915759351e-09, No Iterations 3
time step continuity errors : sum local = 9.99273109067e-10, global = 5.65637040308e-11, cumulative = -2.72094501034e-10
DILUPBiCGStab:  Solving for omega, Initial residual = 0.000104107799899, Final residual = 4.31880352963e-10, No Iterations 4
DILUPBiCGStab:  Solving for k, Initial residual = 0.0288874363362, Final residual = 2.03388305551e-09, No Iterations 5
ExecutionTime = 0.27 s  ClockTime = 0 s

volFieldValue minmaxdomain_scalar write:
--> FOAM Warning : 
    From Foam::label Foam::functionObjects::fieldValues::volFieldValue::writeAll(const Foam::scalarField&, const Foam::scalarField&)
    in file fieldValues/volFieldValue/volFieldValue.C at line 160
    Requested field epsilon not found in database and not processed
--> FOAM Warning : 
    From Foam::label Foam::functionObjects::fieldValues::volFieldValue::writeAll(const Foam::scalarField&, const Foam::scalarField&)
    in file fieldValues/volFieldValue/volFieldValue.C at line 160
    Requested field nuTilda not found in database and not processed

volFieldValue minmaxdomain_vector write:

volFieldValue mindomain_scalar write:
    min(region0) of p = 0.000787093244861
    min(region0) of k = 2.89982860477e-05
    min(region0) of omega = 1.80764007978
    min(region0) of nut = 6.20655636966e-09
--> FOAM Warning : 
    From Foam::label Foam::functionObjects::fieldValues::volFieldValue::writeAll(const Foam::scalarField&, const Foam::scalarField&)
    in file fieldValues/volFieldValue/volFieldValue.C at line 160
    Requested field epsilon not found in database and not processed
--> FOAM Warning : 
    From Foam::label Foam::functionObjects::fieldValues::volFieldValue::writeAll(const Foam::scalarField&, const Foam::scalarField&)
    in file fieldValues/volFieldValue/volFieldValue.C at line 160
    Requested field nuTilda not found in database and not processed

volFieldValue mindomain_vector write:

volFieldValue maxdomain_scalar write:
    max(region0) of p = 0.278654818414
    max(region0) of k = 0.00720327639487
    max(region0) of omega = 9065.69076639
    max(region0) of nut = 0.00014478540904
--> FOAM Warning : 
    From Foam::label Foam::functionObjects::fieldValues::volFieldValue::writeAll(const Foam::scalarField&, const Foam::scalarField&)
    in file fieldValues/volFieldValue/volFieldValue.C at line 160
    Requested field epsilon not found in database and not processed
--> FOAM Warning : 
    From Foam::label Foam::functionObjects::fieldValues::volFieldValue::writeAll(const Foam::scalarField&, const Foam::scalarField&)
    in file fieldValues/volFieldValue/volFieldValue.C at line 160
    Requested field nuTilda not found in database and not processed

volFieldValue maxdomain_vector write:

Time = 24

DILUPBiCGStab:  Solving for Ux, Initial residual = 0.00921197876623, Final residual = 4.23503925082e-09, No Iterations 6
DILUPBiCGStab:  Solving for Uy, Initial residual = 0.0543546880222, Final residual = 4.56858233817e-09, No Iterations 7
DICPCG:  Solving for p, Initial residual = 0.0130550001257, Final residual = 1.07135476336e-05, No Iterations 99
DICPCG:  Solving for p, Initial residual = 1.01628145579e-05, Final residual = 5.28061107457e-09, No Iterations 8
DICPCG:  Solving for p, Initial residual = 5.28061626881e-09, Final residual = 2.21969551688e-09, No Iterations 3
time step continuity errors : sum local = 7.29172785481e-10, global = 1.17637073382e-10, cumulative = -1.54457427652e-10
DILUPBiCGStab:  Solving for omega, Initial residual = 9.78601962927e-05, Final residual = 5.18260510548e-10, No Iterations 4
DILUPBiCGStab:  Solving for k, Initial residual = 0.0254634486643, Final residual = 1.81426153382e-09, No Iterations 5
ExecutionTime = 0.28 s  ClockTime = 0 s

volFieldValue minmaxdomain_scalar write:
--> FOAM Warning : 
    From Foam::label Foam::functionObjects::fieldValues::volFieldValue::writeAll(const Foam::scalarField&, const Foam::scalarField&)
    in file fieldValues/volFieldValue/volFieldValue.C at line 160
    Requested field epsilon not found in database and not processed
--> FOAM Warning : 
    From Foam::label Foam::functionObjects::fieldValues::volFieldValue::writeAll(const Foam::scalarField&, const Foam::scalarField&)
    in file fieldValues/volFieldValue/volFieldValue.C at line 160
    Requested field nuTilda not found in database and not processed

volFieldValue minmaxdomain_vector write:

volFieldValue mindomain_scalar write:
    min(region0) of p = 0.000853217988185
    min(region0) of k = 2.91461026938e-05
    min(region0) of omega = 1.81183933971
    min(region0) of nut = 6.75136608049e-09
--> FOAM Warning : 
    From Foam::label Foam::functionObjects::fieldValues::volFieldValue::writeAll(const Foam::scalarField&, const Foam::scalarField&)
[...]
DILUPBiCGStab:  Solving for k, Initial residual = 2.22798604136e-14, Final residual = 2.84574694149e-17, No Iterations 3
ExecutionTime = 6.99 s  ClockTime = 6 s

volFieldValue minmaxdomain_scalar write:
--> FOAM Warning : 
    From Foam::label Foam::functionObjects::fieldValues::volFieldValue::writeAll(const Foam::scalarField&, const Foam::scalarField&)
    in file fieldValues/volFieldValue/volFieldValue.C at line 160
    Requested field epsilon not found in database and not processed
--> FOAM Warning : 
    From Foam::label Foam::functionObjects::fieldValues::volFieldValue::writeAll(const Foam::scalarField&, const Foam::scalarField&)
    in file fieldValues/volFieldValue/volFieldValue.C at line 160
    Requested field nuTilda not found in database and not processed

volFieldValue minmaxdomain_vector write:

volFieldValue mindomain_scalar write:
    min(region0) of p = 0.00129983392967
    min(region0) of k = 4.05265488771e-05
    min(region0) of omega = 2.48898212971
    min(region0) of nut = 1.74687681654e-08
--> FOAM Warning : 
    From Foam::label Foam::functionObjects::fieldValues::volFieldValue::writeAll(const Foam::scalarField&, const Foam::scalarField&)
    in file fieldValues/volFieldValue/volFieldValue.C at line 160
    Requested field epsilon not found in database and not processed
--> FOAM Warning : 
    From Foam::label Foam::functionObjects::fieldValues::volFieldValue::writeAll(const Foam::scalarField&, const Foam::scalarField&)
    in file fieldValues/volFieldValue/volFieldValue.C at line 160
    Requested field nuTilda not found in database and not processed

volFieldValue mindomain_vector write:

volFieldValue maxdomain_scalar write:
    max(region0) of p = 0.321696201668
    max(region0) of k = 0.00867530528375
    max(region0) of omega = 9065.69657099
    max(region0) of nut = 0.00059177321302
--> FOAM Warning : 
    From Foam::label Foam::functionObjects::fieldValues::volFieldValue::writeAll(const Foam::scalarField&, const Foam::scalarField&)
    in file fieldValues/volFieldValue/volFieldValue.C at line 160
    Requested field epsilon not found in database and not processed
--> FOAM Warning : 
    From Foam::label Foam::functionObjects::fieldValues::volFieldValue::writeAll(const Foam::scalarField&, const Foam::scalarField&)
    in file fieldValues/volFieldValue/volFieldValue.C at line 160
    Requested field nuTilda not found in database and not processed

volFieldValue maxdomain_vector write:

Time = 996

DILUPBiCGStab:  Solving for Ux, Initial residual = 4.14033527287e-14, Final residual = 2.67513119121e-17, No Iterations 3
DILUPBiCGStab:  Solving for Uy, Initial residual = 6.38187135821e-12, Final residual = 4.49266330534e-15, No Iterations 3
DICPCG:  Solving for p, Initial residual = 2.70739738717e-12, Final residual = 5.28510757647e-13, No Iterations 3
DICPCG:  Solving for p, Initial residual = 3.17514242126e-12, Final residual = 5.33570300595e-13, No Iterations 3
DICPCG:  Solving for p, Initial residual = 3.23356506543e-12, Final residual = 2.50152051297e-13, No Iterations 3
time step continuity errors : sum local = 6.79437338709e-13, global = -1.02541291193e-14, cumulative = 2.44513635358e-08
DILUPBiCGStab:  Solving for omega, Initial residual = 2.18830874701e-15, Final residual = 1.29407245497e-19, No Iterations 3
DILUPBiCGStab:  Solving for k, Initial residual = 2.10573017572e-14, Final residual = 5.41867768601e-18, No Iterations 3
ExecutionTime = 6.99 s  ClockTime = 6 s

volFieldValue minmaxdomain_scalar write:
--> FOAM Warning : 
    From Foam::label Foam::functionObjects::fieldValues::volFieldValue::writeAll(const Foam::scalarField&, const Foam::scalarField&)
    in file fieldValues/volFieldValue/volFieldValue.C at line 160
    Requested field epsilon not found in database and not processed
--> FOAM Warning : 
    From Foam::label Foam::functionObjects::fieldValues::volFieldValue::writeAll(const Foam::scalarField&, const Foam::scalarField&)
    in file fieldValues/volFieldValue/volFieldValue.C at line 160
    Requested field nuTilda not found in database and not processed

volFieldValue minmaxdomain_vector write:

volFieldValue mindomain_scalar write:
    min(region0) of p = 0.00129983392967
    min(region0) of k = 4.05265488771e-05
    min(region0) of omega = 2.48898212971
    min(region0) of nut = 1.74687681654e-08
--> FOAM Warning : 
    From Foam::label Foam::functionObjects::fieldValues::volFieldValue::writeAll(const Foam::scalarField&, const Foam::scalarField&)
    in file fieldValues/volFieldValue/volFieldValue.C at line 160
    Requested field epsilon not found in database and not processed
--> FOAM Warning : 
    From Foam::label Foam::functionObjects::fieldValues::volFieldValue::writeAll(const Foam::scalarField&, const Foam::scalarField&)
    in file fieldValues/volFieldValue/volFieldValue.C at line 160
    Requested field nuTilda not found in database and not processed

volFieldValue mindomain_vector write:

volFieldValue maxdomain_scalar write:
    max(region0) of p = 0.321696201668
    max(region0) of k = 0.00867530528375
    max(region0) of omega = 9065.69657099
    max(region0) of nut = 0.00059177321302
--> FOAM Warning : 
    From Foam::label Foam::functionObjects::fieldValues::volFieldValue::writeAll(const Foam::scalarField&, const Foam::scalarField&)
    in file fieldValues/volFieldValue/volFieldValue.C at line 160
    Requested field epsilon not found in database and not processed
--> FOAM Warning : 
    From Foam::label Foam::functionObjects::fieldValues::volFieldValue::writeAll(const Foam::scalarField&, const Foam::scalarField&)
    in file fieldValues/volFieldValue/volFieldValue.C at line 160
    Requested field nuTilda not found in database and not processed

volFieldValue maxdomain_vector write:

Time = 997

DILUPBiCGStab:  Solving for Ux, Initial residual = 4.60514220971e-14, Final residual = 7.04371674185e-17, No Iterations 3
DILUPBiCGStab:  Solving for Uy, Initial residual = 6.04304688895e-12, Final residual = 2.89848024204e-15, No Iterations 3
DICPCG:  Solving for p, Initial residual = 2.58814020603e-12, Final residual = 7.33918828862e-13, No Iterations 3
DICPCG:  Solving for p, Initial residual = 3.05121604262e-12, Final residual = 2.74620450018e-13, No Iterations 3
DICPCG:  Solving for p, Initial residual = 3.09680786822e-12, Final residual = 7.24991924658e-13, No Iterations 3
time step continuity errors : sum local = 7.14490580087e-13, global = -8.95312773824e-15, cumulative = 2.44513545827e-08
DILUPBiCGStab:  Solving for omega, Initial residual = 2.21318269035e-15, Final residual = 3.75717199995e-19, No Iterations 3
DILUPBiCGStab:  Solving for k, Initial residual = 2.29976759064e-14, Final residual = 7.0664938737e-18, No Iterations 3
ExecutionTime = 7 s  ClockTime = 6 s

volFieldValue minmaxdomain_scalar write:
--> FOAM Warning : 
    From Foam::label Foam::functionObjects::fieldValues::volFieldValue::writeAll(const Foam::scalarField&, const Foam::scalarField&)
    in file fieldValues/volFieldValue/volFieldValue.C at line 160
    Requested field epsilon not found in database and not processed
--> FOAM Warning : 
    From Foam::label Foam::functionObjects::fieldValues::volFieldValue::writeAll(const Foam::scalarField&, const Foam::scalarField&)
    in file fieldValues/volFieldValue/volFieldValue.C at line 160
    Requested field nuTilda not found in database and not processed

volFieldValue minmaxdomain_vector write:

volFieldValue mindomain_scalar write:
    min(region0) of p = 0.00129983392967
    min(region0) of k = 4.05265488771e-05
    min(region0) of omega = 2.48898212971
    min(region0) of nut = 1.74687681654e-08
--> FOAM Warning : 
    From Foam::label Foam::functionObjects::fieldValues::volFieldValue::writeAll(const Foam::scalarField&, const Foam::scalarField&)
    in file fieldValues/volFieldValue/volFieldValue.C at line 160
    Requested field epsilon not found in database and not processed
--> FOAM Warning : 
    From Foam::label Foam::functionObjects::fieldValues::volFieldValue::writeAll(const Foam::scalarField&, const Foam::scalarField&)
    in file fieldValues/volFieldValue/volFieldValue.C at line 160
    Requested field nuTilda not found in database and not processed

volFieldValue mindomain_vector write:

volFieldValue maxdomain_scalar write:
    max(region0) of p = 0.321696201668
    max(region0) of k = 0.00867530528375
    max(region0) of omega = 9065.69657099
    max(region0) of nut = 0.00059177321302
--> FOAM Warning : 
    From Foam::label Foam::functionObjects::fieldValues::volFieldValue::writeAll(const Foam::scalarField&, const Foam::scalarField&)
    in file fieldValues/volFieldValue/volFieldValue.C at line 160
    Requested field epsilon not found in database and not processed
--> FOAM Warning : 
    From Foam::label Foam::functionObjects::fieldValues::volFieldValue::writeAll(const Foam::scalarField&, const Foam::scalarField&)
    in file fieldValues/volFieldValue/volFieldValue.C at line 160
    Requested field nuTilda not found in database and not processed

volFieldValue maxdomain_vector write:

Time = 998

DILUPBiCGStab:  Solving for Ux, Initial residual = 5.54354801431e-14, Final residual = 4.52073655859e-17, No Iterations 3
DILUPBiCGStab:  Solving for Uy, Initial residual = 6.70450974714e-12, Final residual = 4.04110804789e-15, No Iterations 3
DICPCG:  Solving for p, Initial residual = 2.8190933189e-12, Final residual = 1.31463336639e-12, No Iterations 3
DICPCG:  Solving for p, Initial residual = 3.15860021949e-12, Final residual = 8.78799777054e-13, No Iterations 3
DICPCG:  Solving for p, Initial residual = 3.05223192265e-12, Final residual = 6.73784976064e-13, No Iterations 3
time step continuity errors : sum local = 6.66130528898e-13, global = -7.53815475763e-15, cumulative = 2.44513470445e-08
DILUPBiCGStab:  Solving for omega, Initial residual = 2.19760323881e-15, Final residual = 5.17454601229e-20, No Iterations 3
DILUPBiCGStab:  Solving for k, Initial residual = 2.13752061259e-14, Final residual = 6.92351314768e-18, No Iterations 3
ExecutionTime = 7 s  ClockTime = 6 s

volFieldValue minmaxdomain_scalar write:
--> FOAM Warning : 
    From Foam::label Foam::functionObjects::fieldValues::volFieldValue::writeAll(const Foam::scalarField&, const Foam::scalarField&)
    in file fieldValues/volFieldValue/volFieldValue.C at line 160
    Requested field epsilon not found in database and not processed
--> FOAM Warning : 
    From Foam::label Foam::functionObjects::fieldValues::volFieldValue::writeAll(const Foam::scalarField&, const Foam::scalarField&)
    in file fieldValues/volFieldValue/volFieldValue.C at line 160
    Requested field nuTilda not found in database and not processed

volFieldValue minmaxdomain_vector write:

volFieldValue mindomain_scalar write:
    min(region0) of p = 0.00129983392967
    min(region0) of k = 4.05265488771e-05
    min(region0) of omega = 2.48898212971
    min(region0) of nut = 1.74687681654e-08
--> FOAM Warning : 
    From Foam::label Foam::functionObjects::fieldValues::volFieldValue::writeAll(const Foam::scalarField&, const Foam::scalarField&)
    in file fieldValues/volFieldValue/volFieldValue.C at line 160
    Requested field epsilon not found in database and not processed
--> FOAM Warning : 
    From Foam::label Foam::functionObjects::fieldValues::volFieldValue::writeAll(const Foam::scalarField&, const Foam::scalarField&)
    in file fieldValues/volFieldValue/volFieldValue.C at line 160
    Requested field nuTilda not found in database and not processed

volFieldValue mindomain_vector write:

volFieldValue maxdomain_scalar write:
    max(region0) of p = 0.321696201668
    max(region0) of k = 0.00867530528375
    max(region0) of omega = 9065.69657099
    max(region0) of nut = 0.00059177321302
--> FOAM Warning : 
    From Foam::label Foam::functionObjects::fieldValues::volFieldValue::writeAll(const Foam::scalarField&, const Foam::scalarField&)
    in file fieldValues/volFieldValue/volFieldValue.C at line 160
    Requested field epsilon not found in database and not processed
--> FOAM Warning : 
    From Foam::label Foam::functionObjects::fieldValues::volFieldValue::writeAll(const Foam::scalarField&, const Foam::scalarField&)
    in file fieldValues/volFieldValue/volFieldValue.C at line 160
    Requested field nuTilda not found in database and not processed

volFieldValue maxdomain_vector write:

Time = 999

DILUPBiCGStab:  Solving for Ux, Initial residual = 4.41918636231e-14, Final residual = 5.49155604136e-17, No Iterations 3
DILUPBiCGStab:  Solving for Uy, Initial residual = 6.1316566269e-12, Final residual = 7.79969081164e-15, No Iterations 3
DICPCG:  Solving for p, Initial residual = 2.6656924917e-12, Final residual = 7.17824837815e-13, No Iterations 3
DICPCG:  Solving for p, Initial residual = 3.12058515743e-12, Final residual = 5.70123639181e-13, No Iterations 3
DICPCG:  Solving for p, Initial residual = 3.2147582234e-12, Final residual = 1.91121284773e-13, No Iterations 3
time step continuity errors : sum local = 6.73311362282e-13, global = -6.45991243503e-15, cumulative = 2.44513405846e-08
DILUPBiCGStab:  Solving for omega, Initial residual = 2.01250981884e-15, Final residual = 4.78394160733e-20, No Iterations 3
DILUPBiCGStab:  Solving for k, Initial residual = 2.1009216654e-14, Final residual = 1.42442887647e-17, No Iterations 3
ExecutionTime = 7.01 s  ClockTime = 6 s

volFieldValue minmaxdomain_scalar write:
--> FOAM Warning : 
    From Foam::label Foam::functionObjects::fieldValues::volFieldValue::writeAll(const Foam::scalarField&, const Foam::scalarField&)
    in file fieldValues/volFieldValue/volFieldValue.C at line 160
    Requested field epsilon not found in database and not processed
--> FOAM Warning : 
    From Foam::label Foam::functionObjects::fieldValues::volFieldValue::writeAll(const Foam::scalarField&, const Foam::scalarField&)
    in file fieldValues/volFieldValue/volFieldValue.C at line 160
    Requested field nuTilda not found in database and not processed

volFieldValue minmaxdomain_vector write:

volFieldValue mindomain_scalar write:
    min(region0) of p = 0.00129983392967
    min(region0) of k = 4.05265488771e-05
    min(region0) of omega = 2.48898212971
    min(region0) of nut = 1.74687681654e-08
--> FOAM Warning : 
    From Foam::label Foam::functionObjects::fieldValues::volFieldValue::writeAll(const Foam::scalarField&, const Foam::scalarField&)
    in file fieldValues/volFieldValue/volFieldValue.C at line 160
    Requested field epsilon not found in database and not processed
--> FOAM Warning : 
    From Foam::label Foam::functionObjects::fieldValues::volFieldValue::writeAll(const Foam::scalarField&, const Foam::scalarField&)
    in file fieldValues/volFieldValue/volFieldValue.C at line 160
    Requested field nuTilda not found in database and not processed

volFieldValue mindomain_vector write:

volFieldValue maxdomain_scalar write:
    max(region0) of p = 0.321696201668
    max(region0) of k = 0.00867530528375
    max(region0) of omega = 9065.69657099
    max(region0) of nut = 0.00059177321302
--> FOAM Warning : 
    From Foam::label Foam::functionObjects::fieldValues::volFieldValue::writeAll(const Foam::scalarField&, const Foam::scalarField&)
    in file fieldValues/volFieldValue/volFieldValue.C at line 160
    Requested field epsilon not found in database and not processed
--> FOAM Warning : 
    From Foam::label Foam::functionObjects::fieldValues::volFieldValue::writeAll(const Foam::scalarField&, const Foam::scalarField&)
    in file fieldValues/volFieldValue/volFieldValue.C at line 160
    Requested field nuTilda not found in database and not processed

volFieldValue maxdomain_vector write:

Time = 1000

DILUPBiCGStab:  Solving for Ux, Initial residual = 3.83977546318e-14, Final residual = 3.57496862924e-17, No Iterations 3
DILUPBiCGStab:  Solving for Uy, Initial residual = 6.32433087102e-12, Final residual = 3.94934054852e-14, No Iterations 3
DICPCG:  Solving for p, Initial residual = 2.63497674618e-12, Final residual = 7.15905767045e-13, No Iterations 3
DICPCG:  Solving for p, Initial residual = 3.06351401145e-12, Final residual = 4.59853502078e-13, No Iterations 3
DICPCG:  Solving for p, Initial residual = 3.13081872024e-12, Final residual = 7.47498335604e-13, No Iterations 3
time step continuity errors : sum local = 6.78048128804e-13, global = -5.06499299693e-15, cumulative = 2.44513355196e-08
DILUPBiCGStab:  Solving for omega, Initial residual = 1.99214132116e-15, Final residual = 4.30780257117e-20, No Iterations 3
DILUPBiCGStab:  Solving for k, Initial residual = 2.18696538448e-14, Final residual = 6.53260198318e-18, No Iterations 3
ExecutionTime = 7.02 s  ClockTime = 6 s

volFieldValue minmaxdomain_scalar write:
--> FOAM Warning : 
    From Foam::label Foam::functionObjects::fieldValues::volFieldValue::writeAll(const Foam::scalarField&, const Foam::scalarField&)
    in file fieldValues/volFieldValue/volFieldValue.C at line 160
    Requested field epsilon not found in database and not processed
--> FOAM Warning : 
    From Foam::label Foam::functionObjects::fieldValues::volFieldValue::writeAll(const Foam::scalarField&, const Foam::scalarField&)
    in file fieldValues/volFieldValue/volFieldValue.C at line 160
    Requested field nuTilda not found in database and not processed

volFieldValue minmaxdomain_vector write:

volFieldValue mindomain_scalar write:
    min(region0) of p = 0.00129983392967
    min(region0) of k = 4.05265488771e-05
    min(region0) of omega = 2.48898212971
    min(region0) of nut = 1.74687681654e-08
--> FOAM Warning : 
    From Foam::label Foam::functionObjects::fieldValues::volFieldValue::writeAll(const Foam::scalarField&, const Foam::scalarField&)
    in file fieldValues/volFieldValue/volFieldValue.C at line 160
    Requested field epsilon not found in database and not processed
--> FOAM Warning : 
    From Foam::label Foam::functionObjects::fieldValues::volFieldValue::writeAll(const Foam::scalarField&, const Foam::scalarField&)
    in file fieldValues/volFieldValue/volFieldValue.C at line 160
    Requested field nuTilda not found in database and not processed

volFieldValue mindomain_vector write:

volFieldValue maxdomain_scalar write:
    max(region0) of p = 0.321696201668
    max(region0) of k = 0.00867530528375
    max(region0) of omega = 9065.69657099
    max(region0) of nut = 0.00059177321302
--> FOAM Warning : 
    From Foam::label Foam::functionObjects::fieldValues::volFieldValue::writeAll(const Foam::scalarField&, const Foam::scalarField&)
    in file fieldValues/volFieldValue/volFieldValue.C at line 160
    Requested field epsilon not found in database and not processed
--> FOAM Warning : 
    From Foam::label Foam::functionObjects::fieldValues::volFieldValue::writeAll(const Foam::scalarField&, const Foam::scalarField&)
    in file fieldValues/volFieldValue/volFieldValue.C at line 160
    Requested field nuTilda not found in database and not processed

volFieldValue maxdomain_vector write:

yPlus yplus_field write:
    writing field yPlus
    patch top y+ : min = 1.19328552694, max = 2.4609515034, average = 1.22224701989
wallShearStress wallShearStress1 write:
    writing field wallShearStress
    min/max(top) = (-0.0137008891924 -2.7379819124e-07 -6.38906235905e-18), (-0.00322142802007 0.000353533555828 1.2983199222e-17)
writeObjects writeObjects1 write:
--> FOAM Warning : 
    From virtual bool Foam::functionObjects::writeObjects::write()
    in file writeObjects/writeObjects.C at line 162
    No corresponding selection for (kOmega:G "(beta*omega)" nuEff "(nut+nu)")
Available objects in database:

34
(
MRFProperties
U
UPrevIter
boundary
cellZones
cumulativeContErr
data
faceZones
faces
fvOptions
fvSchemes
fvSolution
k
kPrevIter
neighbour
nu
nuPrevIter
nut
nutPrevIter
omega
omegaPrevIter
owner
p
pPrevIter
phi
pointZones
points
solutionControl
transportProperties
turbulenceProperties
wallShearStress
wallShearStressPrevIter
yPlus
yPlusPrevIter
)

End

