/*---------------------------------------------------------------------------*\
| =========                 |                                                 |
| \\      /  F ield         | OpenFOAM: The Open Source CFD Toolbox           |
|  \\    /   O peration     | Version:  2206                                  |
|   \\  /    A nd           | Website:  www.openfoam.com                      |
|    \\/     M anipulation  |                                                 |
\*---------------------------------------------------------------------------*/
Build  : _da9441b0-20260127 OPENFOAM=2206 patch=260127 version=2206
Arch   : "LSB;label=32;scalar=64"
Exec   : simpleFoam
Date   : Jun 10 2026
Time   : 22:05:11
Host   : NotebookdoDan
PID    : 63780
I/O    : uncollated
Case   : /home/danilom/Trabalho_Modelagem_Turbulencia/GT1/turbulent_planar
nProcs : 1
trapFpe: Floating point exception trapping enabled (FOAM_SIGFPE).
fileModificationChecking : Monitoring run-time modified files using timeStampMaster (fileModificationSkew 5, maxFileModificationPolls 20)
allowSystemOperations : Allowing user-supplied system call operations

// * * * * * * * * * * * * * * * * * * * * * * * * * * * * * * * * * * * * * //
Create time

--> FOAM Warning : 
    From static Foam::IOstreamOption::compressionType Foam::IOstreamOption::compressionEnum(const Foam::word&, compressionType)
    in file db/IOstreams/IOstreams/IOstreamOption.C at line 115
    Unknown compression specifier 'uncompressed', using compression off
Create mesh for time = 0


SIMPLE: no convergence criteria found. Calculations will run for 1000 steps.

Reading field p

Reading field U

Reading/calculating face flux field phi

Selecting incompressible transport model Newtonian
Selecting turbulence model type RAS
Selecting RAS turbulence model kOmegaSST
Selecting patchDistMethod meshWave
RAS
{
    RASModel        kOmegaSST;
    turbulence      on;
    printCoeffs     on;
    alphaK1         0.85;
    alphaK2         1;
    alphaOmega1     0.5;
    alphaOmega2     0.856;
    gamma1          0.555555555556;
    gamma2          0.44;
    beta1           0.075;
    beta2           0.0828;
    betaStar        0.09;
    a1              0.31;
    b1              1;
    c1              10;
    F3              false;
    decayControl    false;
    kInf            0;
    omegaInf        0;
}

No MRF models present

No finite volume options present

Starting time loop

wallShearStress wallShearStress1:
    processing all wall patches

Time = 1

DILUPBiCGStab:  Solving for Ux, Initial residual = 1, Final residual = 5.10336714382e-09, No Iterations 9
DILUPBiCGStab:  Solving for Uy, Initial residual = 0.999999999997, Final residual = 1.73560626326e-09, No Iterations 11
DICPCG:  Solving for p, Initial residual = 1, Final residual = 0.000593065337273, No Iterations 102
DICPCG:  Solving for p, Initial residual = 2.93583265475e-06, Final residual = 4.77497489369e-09, No Iterations 4
DICPCG:  Solving for p, Initial residual = 4.77498954127e-09, Final residual = 1.14637331784e-10, No Iterations 3
time step continuity errors : sum local = 4.62915447537e-11, global = -3.39889750895e-12, cumulative = -3.39889750895e-12
DILUPBiCGStab:  Solving for omega, Initial residual = 0.0215317371866, Final residual = 5.13484843109e-09, No Iterations 7
DILUPBiCGStab:  Solving for k, Initial residual = 1, Final residual = 3.33328779661e-09, No Iterations 6
ExecutionTime = 0.04 s  ClockTime = 0 s

volFieldValue minmaxdomain_scalar write:
--> FOAM Warning : 
    From Foam::label Foam::functionObjects::fieldValues::volFieldValue::writeAll(const Foam::scalarField&, const Foam::scalarField&)
    in file fieldValues/volFieldValue/volFieldValue.C at line 160
    Requested field epsilon not found in database and not processed
--> FOAM Warning : 
    From Foam::label Foam::functionObjects::fieldValues::volFieldValue::writeAll(const Foam::scalarField&, const Foam::scalarField&)
    in file fieldValues/volFieldValue/volFieldValue.C at line 160
    Requested field nuTilda not found in database and not processed

volFieldValue minmaxdomain_vector write:

volFieldValue mindomain_scalar write:
    min(region0) of p = 0.00123072365131
    min(region0) of k = 7.94668285097e-05
    min(region0) of omega = 5.43126937072
    min(region0) of nut = 8.18430474886e-08
--> FOAM Warning : 
    From Foam::label Foam::functionObjects::fieldValues::volFieldValue::writeAll(const Foam::scalarField&, const Foam::scalarField&)
    in file fieldValues/volFieldValue/volFieldValue.C at line 160
    Requested field epsilon not found in database and not processed
--> FOAM Warning : 
    From Foam::label Foam::functionObjects::fieldValues::volFieldValue::writeAll(const Foam::scalarField&, const Foam::scalarField&)
    in file fieldValues/volFieldValue/volFieldValue.C at line 160
    Requested field nuTilda not found in database and not processed

volFieldValue mindomain_vector write:

volFieldValue maxdomain_scalar write:
    max(region0) of p = 0.250967860866
    max(region0) of k = 0.00127988864152
    max(region0) of omega = 9050.32720173
    max(region0) of nut = 2.16369395896e-05
--> FOAM Warning : 
    From Foam::label Foam::functionObjects::fieldValues::volFieldValue::writeAll(const Foam::scalarField&, const Foam::scalarField&)
    in file fieldValues/volFieldValue/volFieldValue.C at line 160
    Requested field epsilon not found in database and not processed
--> FOAM Warning : 
    From Foam::label Foam::functionObjects::fieldValues::volFieldValue::writeAll(const Foam::scalarField&, const Foam::scalarField&)
    in file fieldValues/volFieldValue/volFieldValue.C at line 160
    Requested field nuTilda not found in database and not processed

volFieldValue maxdomain_vector write:

Time = 2

DILUPBiCGStab:  Solving for Ux, Initial residual = 0.148952183125, Final residual = 7.35831994112e-09, No Iterations 9
DILUPBiCGStab:  Solving for Uy, Initial residual = 0.352029270039, Final residual = 9.63464356921e-09, No Iterations 10
DICPCG:  Solving for p, Initial residual = 0.0351858130368, Final residual = 2.75056806982e-05, No Iterations 101
DICPCG:  Solving for p, Initial residual = 2.7200511514e-05, Final residual = 1.5540236772e-08, No Iterations 5
DICPCG:  Solving for p, Initial residual = 1.55403161528e-08, Final residual = 1.46238977826e-09, No Iterations 3
time step continuity errors : sum local = 5.67133663074e-10, global = 1.10225790706e-10, cumulative = 1.06826893197e-10
DILUPBiCGStab:  Solving for omega, Initial residual = 0.218765907017, Final residual = 6.78091050775e-09, No Iterations 4
bounding omega, min: -15.3172950306 max: 9055.27956633 average: 385.969508022
DILUPBiCGStab:  Solving for k, Initial residual = 0.173840929405, Final residual = 5.26516363152e-09, No Iterations 6
ExecutionTime = 0.05 s  ClockTime = 0 s

volFieldValue minmaxdomain_scalar write:
--> FOAM Warning : 
    From Foam::label Foam::functionObjects::fieldValues::volFieldValue::writeAll(const Foam::scalarField&, const Foam::scalarField&)
    in file fieldValues/volFieldValue/volFieldValue.C at line 160
    Requested field epsilon not found in database and not processed
--> FOAM Warning : 
    From Foam::label Foam::functionObjects::fieldValues::volFieldValue::writeAll(const Foam::scalarField&, const Foam::scalarField&)
    in file fieldValues/volFieldValue/volFieldValue.C at line 160
    Requested field nuTilda not found in database and not processed

volFieldValue minmaxdomain_vector write:

volFieldValue mindomain_scalar write:
    min(region0) of p = 0.00118832002198
    min(region0) of k = 5.38572815431e-05
    min(region0) of omega = 0.14643781685
    min(region0) of nut = 8.05010529956e-08
--> FOAM Warning : 
    From Foam::label Foam::functionObjects::fieldValues::volFieldValue::writeAll(const Foam::scalarField&, const Foam::scalarField&)
    in file fieldValues/volFieldValue/volFieldValue.C at line 160
    Requested field epsilon not found in database and not processed
--> FOAM Warning : 
    From Foam::label Foam::functionObjects::fieldValues::volFieldValue::writeAll(const Foam::scalarField&, const Foam::scalarField&)
    in file fieldValues/volFieldValue/volFieldValue.C at line 160
    Requested field nuTilda not found in database and not processed

volFieldValue mindomain_vector write:

volFieldValue maxdomain_scalar write:
    max(region0) of p = 0.271904839819
    max(region0) of k = 0.00167264246929
    max(region0) of omega = 9055.27956633
    max(region0) of nut = 9.26126095303e-05
--> FOAM Warning : 
    From Foam::label Foam::functionObjects::fieldValues::volFieldValue::writeAll(const Foam::scalarField&, const Foam::scalarField&)
    in file fieldValues/volFieldValue/volFieldValue.C at line 160
    Requested field epsilon not found in database and not processed
--> FOAM Warning : 
    From Foam::label Foam::functionObjects::fieldValues::volFieldValue::writeAll(const Foam::scalarField&, const Foam::scalarField&)
    in file fieldValues/volFieldValue/volFieldValue.C at line 160
    Requested field nuTilda not found in database and not processed

volFieldValue maxdomain_vector write:

Time = 3

DILUPBiCGStab:  Solving for Ux, Initial residual = 0.0600929363602, Final residual = 2.45406959854e-09, No Iterations 9
DILUPBiCGStab:  Solving for Uy, Initial residual = 0.264439890985, Final residual = 7.40324826063e-09, No Iterations 9
DICPCG:  Solving for p, Initial residual = 0.0352191759088, Final residual = 2.58411971997e-05, No Iterations 101
DICPCG:  Solving for p, Initial residual = 3.35407422292e-05, Final residual = 1.76759603312e-08, No Iterations 5
DICPCG:  Solving for p, Initial residual = 1.76760334037e-08, Final residual = 2.63781625764e-09, No Iterations 3
time step continuity errors : sum local = 8.0040317279e-10, global = -6.58458922539e-11, cumulative = 4.09810009435e-11
DILUPBiCGStab:  Solving for omega, Initial residual = 0.00974178598672, Final residual = 7.8670287206e-09, No Iterations 4
DILUPBiCGStab:  Solving for k, Initial residual = 0.265420223209, Final residual = 9.81961282567e-09, No Iterations 5
ExecutionTime = 0.06 s  ClockTime = 0 s

volFieldValue minmaxdomain_scalar write:
--> FOAM Warning : 
    From Foam::label Foam::functionObjects::fieldValues::volFieldValue::writeAll(const Foam::scalarField&, const Foam::scalarField&)
    in file fieldValues/volFieldValue/volFieldValue.C at line 160
    Requested field epsilon not found in database and not processed
--> FOAM Warning : 
    From Foam::label Foam::functionObjects::fieldValues::volFieldValue::writeAll(const Foam::scalarField&, const Foam::scalarField&)
    in file fieldValues/volFieldValue/volFieldValue.C at line 160
    Requested field nuTilda not found in database and not processed

volFieldValue minmaxdomain_vector write:

volFieldValue mindomain_scalar write:
    min(region0) of p = 0.000875212389343
    min(region0) of k = 6.24735647171e-05
    min(region0) of omega = 3.59628815575
    min(region0) of nut = 5.46382346138e-08
--> FOAM Warning : 
    From Foam::label Foam::functionObjects::fieldValues::volFieldValue::writeAll(const Foam::scalarField&, const Foam::scalarField&)
    in file fieldValues/volFieldValue/volFieldValue.C at line 160
    Requested field epsilon not found in database and not processed
--> FOAM Warning : 
    From Foam::label Foam::functionObjects::fieldValues::volFieldValue::writeAll(const Foam::scalarField&, const Foam::scalarField&)
    in file fieldValues/volFieldValue/volFieldValue.C at line 160
    Requested field nuTilda not found in database and not processed

volFieldValue mindomain_vector write:

volFieldValue maxdomain_scalar write:
    max(region0) of p = 0.229143512008
    max(region0) of k = 0.00208195238132
    max(region0) of omega = 9059.7566917
    max(region0) of nut = 2.55302934827e-05
--> FOAM Warning : 
    From Foam::label Foam::functionObjects::fieldValues::volFieldValue::writeAll(const Foam::scalarField&, const Foam::scalarField&)
    in file fieldValues/volFieldValue/volFieldValue.C at line 160
    Requested field epsilon not found in database and not processed
--> FOAM Warning : 
    From Foam::label Foam::functionObjects::fieldValues::volFieldValue::writeAll(const Foam::scalarField&, const Foam::scalarField&)
    in file fieldValues/volFieldValue/volFieldValue.C at line 160
    Requested field nuTilda not found in database and not processed

volFieldValue maxdomain_vector write:

Time = 4

DILUPBiCGStab:  Solving for Ux, Initial residual = 0.0361157645458, Final residual = 4.71474849487e-09, No Iterations 8
DILUPBiCGStab:  Solving for Uy, Initial residual = 0.249722812257, Final residual = 3.84944811167e-09, No Iterations 9
DICPCG:  Solving for p, Initial residual = 0.0434220067365, Final residual = 2.69060625233e-05, No Iterations 101
DICPCG:  Solving for p, Initial residual = 3.08230574316e-05, Final residual = 1.63102242959e-08, No Iterations 5
DICPCG:  Solving for p, Initial residual = 1.63102198981e-08, Final residual = 4.98159941613e-09, No Iterations 3
time step continuity errors : sum local = 1.38590446188e-09, global = 1.32814977818e-11, cumulative = 5.42624987254e-11
DILUPBiCGStab:  Solving for omega, Initial residual = 0.010591212183, Final residual = 3.58992565543e-09, No Iterations 4
DILUPBiCGStab:  Solving for k, Initial residual = 0.281608389354, Final residual = 4.22173235728e-09, No Iterations 6
ExecutionTime = 0.07 s  ClockTime = 0 s

volFieldValue minmaxdomain_scalar write:
--> FOAM Warning : 
    From Foam::label Foam::functionObjects::fieldValues::volFieldValue::writeAll(const Foam::scalarField&, const Foam::scalarField&)
    in file fieldValues/volFieldValue/volFieldValue.C at line 160
    Requested field epsilon not found in database and not processed
--> FOAM Warning : 
    From Foam::label Foam::functionObjects::fieldValues::volFieldValue::writeAll(const Foam::scalarField&, const Foam::scalarField&)
    in file fieldValues/volFieldValue/volFieldValue.C at line 160
    Requested field nuTilda not found in database and not processed

volFieldValue minmaxdomain_vector write:

volFieldValue mindomain_scalar write:
    min(region0) of p = 0.00072828058112
    min(region0) of k = 6.97217030902e-05
    min(region0) of omega = 3.09454988418
    min(region0) of nut = 3.51569313748e-08
--> FOAM Warning : 
    From Foam::label Foam::functionObjects::fieldValues::volFieldValue::writeAll(const Foam::scalarField&, const Foam::scalarField&)
    in file fieldValues/volFieldValue/volFieldValue.C at line 160
    Requested field epsilon not found in database and not processed
--> FOAM Warning : 
    From Foam::label Foam::functionObjects::fieldValues::volFieldValue::writeAll(const Foam::scalarField&, const Foam::scalarField&)
    in file fieldValues/volFieldValue/volFieldValue.C at line 160
    Requested field nuTilda not found in database and not processed

volFieldValue mindomain_vector write:

volFieldValue maxdomain_scalar write:
    max(region0) of p = 0.206012771668
    max(region0) of k = 0.00230164067043
    max(region0) of omega = 9062.2898116
    max(region0) of nut = 2.60135360441e-05
--> FOAM Warning : 
    From Foam::label Foam::functionObjects::fieldValues::volFieldValue::writeAll(const Foam::scalarField&, const Foam::scalarField&)
    in file fieldValues/volFieldValue/volFieldValue.C at line 160
    Requested field epsilon not found in database and not processed
--> FOAM Warning : 
    From Foam::label Foam::functionObjects::fieldValues::volFieldValue::writeAll(const Foam::scalarField&, const Foam::scalarField&)
    in file fieldValues/volFieldValue/volFieldValue.C at line 160
    Requested field nuTilda not found in database and not processed

volFieldValue maxdomain_vector write:

Time = 5

DILUPBiCGStab:  Solving for Ux, Initial residual = 0.0257209733268, Final residual = 8.22303036302e-09, No Iterations 8
DILUPBiCGStab:  Solving for Uy, Initial residual = 0.234088740432, Final residual = 6.35069749208e-09, No Iterations 9
DICPCG:  Solving for p, Initial residual = 0.0471795363019, Final residual = 3.43598477405e-05, No Iterations 98
DICPCG:  Solving for p, Initial residual = 3.54382140226e-05, Final residual = 6.0952717489e-09, No Iterations 100
DICPCG:  Solving for p, Initial residual = 6.09521342483e-09, Final residual = 5.28835696285e-11, No Iterations 3
time step continuity errors : sum local = 1.47508642663e-11, global = 1.83251105697e-14, cumulative = 5.42808238359e-11
DILUPBiCGStab:  Solving for omega, Initial residual = 0.00402591205017, Final residual = 3.35453506605e-09, No Iterations 4
DILUPBiCGStab:  Solving for k, Initial residual = 0.263501027383, Final residual = 5.63072229308e-09, No Iterations 6
ExecutionTime = 0.08 s  ClockTime = 0 s

volFieldValue minmaxdomain_scalar write:
--> FOAM Warning : 
    From Foam::label Foam::functionObjects::fieldValues::volFieldValue::writeAll(const Foam::scalarField&, const Foam::scalarField&)
    in file fieldValues/volFieldValue/volFieldValue.C at line 160
    Requested field epsilon not found in database and not processed
--> FOAM Warning : 
    From Foam::label Foam::functionObjects::fieldValues::volFieldValue::writeAll(const Foam::scalarField&, const Foam::scalarField&)
    in file fieldValues/volFieldValue/volFieldValue.C at line 160
    Requested field nuTilda not found in database and not processed

volFieldValue minmaxdomain_vector write:

volFieldValue mindomain_scalar write:
    min(region0) of p = 0.000677706637819
    min(region0) of k = 5.04413120158e-05
    min(region0) of omega = 2.7351523768
    min(region0) of nut = 2.35507937082e-08
--> FOAM Warning : 
    From Foam::label Foam::functionObjects::fieldValues::volFieldValue::writeAll(const Foam::scalarField&, const Foam::scalarField&)
    in file fieldValues/volFieldValue/volFieldValue.C at line 160
    Requested field epsilon not found in database and not processed
--> FOAM Warning : 
    From Foam::label Foam::functionObjects::fieldValues::volFieldValue::writeAll(const Foam::scalarField&, const Foam::scalarField&)
    in file fieldValues/volFieldValue/volFieldValue.C at line 160
    Requested field nuTilda not found in database and not processed

volFieldValue mindomain_vector write:

volFieldValue maxdomain_scalar write:
    max(region0) of p = 0.199992088118
    max(region0) of k = 0.00242575933812
    max(region0) of omega = 9063.64911725
    max(region0) of nut = 2.70580156857e-05
--> FOAM Warning : 
    From Foam::label Foam::functionObjects::fieldValues::volFieldValue::writeAll(const Foam::scalarField&, const Foam::scalarField&)
    in file fieldValues/volFieldValue/volFieldValue.C at line 160
    Requested field epsilon not found in database and not processed
--> FOAM Warning : 
    From Foam::label Foam::functionObjects::fieldValues::volFieldValue::writeAll(const Foam::scalarField&, const Foam::scalarField&)
    in file fieldValues/volFieldValue/volFieldValue.C at line 160
    Requested field nuTilda not found in database and not processed

volFieldValue maxdomain_vector write:

Time = 6

DILUPBiCGStab:  Solving for Ux, Initial residual = 0.0201753848883, Final residual = 7.01733335093e-09, No Iterations 7
DILUPBiCGStab:  Solving for Uy, Initial residual = 0.218032293846, Final residual = 3.13814075192e-09, No Iterations 9
DICPCG:  Solving for p, Initial residual = 0.0460520570256, Final residual = 2.21450253924e-05, No Iterations 101
DICPCG:  Solving for p, Initial residual = 2.23567582664e-05, Final residual = 1.25499901811e-08, No Iterations 5
DICPCG:  Solving for p, Initial residual = 1.2550092543e-08, Final residual = 4.59727743005e-09, No Iterations 3
time step continuity errors : sum local = 1.28295110294e-09, global = 6.27717821591e-11, cumulative = 1.17052605995e-10
DILUPBiCGStab:  Solving for omega, Initial residual = 0.00330973576718, Final residual = 5.40254690287e-09, No Iterations 4
DILUPBiCGStab:  Solving for k, Initial residual = 0.241955975689, Final residual = 5.50403784133e-09, No Iterations 6
ExecutionTime = 0.1 s  ClockTime = 0 s

volFieldValue minmaxdomain_scalar write:
--> FOAM Warning : 
    From Foam::label Foam::functionObjects::fieldValues::volFieldValue::writeAll(const Foam::scalarField&, const Foam::scalarField&)
    in file fieldValues/volFieldValue/volFieldValue.C at line 160
    Requested field epsilon not found in database and not processed
--> FOAM Warning : 
    From Foam::label Foam::functionObjects::fieldValues::volFieldValue::writeAll(const Foam::scalarField&, const Foam::scalarField&)
    in file fieldValues/volFieldValue/volFieldValue.C at line 160
    Requested field nuTilda not found in database and not processed

volFieldValue minmaxdomain_vector write:

volFieldValue mindomain_scalar write:
    min(region0) of p = 0.00064671409219
    min(region0) of k = 3.548154777e-05
    min(region0) of omega = 2.46990396224
    min(region0) of nut = 1.6755739952e-08
--> FOAM Warning : 
    From Foam::label Foam::functionObjects::fieldValues::volFieldValue::writeAll(const Foam::scalarField&, const Foam::scalarField&)
    in file fieldValues/volFieldValue/volFieldValue.C at line 160
    Requested field epsilon not found in database and not processed
--> FOAM Warning : 
    From Foam::label Foam::functionObjects::fieldValues::volFieldValue::writeAll(const Foam::scalarField&, const Foam::scalarField&)
    in file fieldValues/volFieldValue/volFieldValue.C at line 160
    Requested field nuTilda not found in database and not processed

volFieldValue mindomain_vector write:

volFieldValue maxdomain_scalar write:
    max(region0) of p = 0.198722094889
    max(region0) of k = 0.00249906658894
    max(region0) of omega = 9064.41700255
    max(region0) of nut = 2.85639443436e-05
--> FOAM Warning : 
    From Foam::label Foam::functionObjects::fieldValues::volFieldValue::writeAll(const Foam::scalarField&, const Foam::scalarField&)
    in file fieldValues/volFieldValue/volFieldValue.C at line 160
    Requested field epsilon not found in database and not processed
--> FOAM Warning : 
    From Foam::label Foam::functionObjects::fieldValues::volFieldValue::writeAll(const Foam::scalarField&, const Foam::scalarField&)
    in file fieldValues/volFieldValue/volFieldValue.C at line 160
    Requested field nuTilda not found in database and not processed

volFieldValue maxdomain_vector write:

Time = 7

DILUPBiCGStab:  Solving for Ux, Initial residual = 0.0164657641265, Final residual = 6.01381026703e-09, No Iterations 7
DILUPBiCGStab:  Solving for Uy, Initial residual = 0.204066766093, Final residual = 1.7289988747e-09, No Iterations 9
DICPCG:  Solving for p, Initial residual = 0.0440857984337, Final residual = 1.81219798111e-05, No Iterations 101
DICPCG:  Solving for p, Initial residual = 1.83102080089e-05, Final residual = 1.27355531022e-08, No Iterations 5
DICPCG:  Solving for p, Initial residual = 1.27355315655e-08, Final residual = 5.88551102937e-09, No Iterations 3
time step continuity errors : sum local = 1.63646840249e-09, global = 1.53673932715e-10, cumulative = 2.7072653871e-10
DILUPBiCGStab:  Solving for omega, Initial residual = 0.00149370237872, Final residual = 3.33885795786e-09, No Iterations 4
DILUPBiCGStab:  Solving for k, Initial residual = 0.22388665485, Final residual = 9.10856870979e-09, No Iterations 6
ExecutionTime = 0.11 s  ClockTime = 0 s

volFieldValue minmaxdomain_scalar write:
--> FOAM Warning : 
    From Foam::label Foam::functionObjects::fieldValues::volFieldValue::writeAll(const Foam::scalarField&, const Foam::scalarField&)
    in file fieldValues/volFieldValue/volFieldValue.C at line 160
    Requested field epsilon not found in database and not processed
--> FOAM Warning : 
    From Foam::label Foam::functionObjects::fieldValues::volFieldValue::writeAll(const Foam::scalarField&, const Foam::scalarField&)
    in file fieldValues/volFieldValue/volFieldValue.C at line 160
    Requested field nuTilda not found in database and not processed

volFieldValue minmaxdomain_vector write:

volFieldValue mindomain_scalar write:
    min(region0) of p = 0.000618984571902
    min(region0) of k = 2.55830357192e-05
    min(region0) of omega = 2.26480518477
    min(region0) of nut = 1.26400722742e-08
--> FOAM Warning : 
    From Foam::label Foam::functionObjects::fieldValues::volFieldValue::writeAll(const Foam::scalarField&, const Foam::scalarField&)
    in file fieldValues/volFieldValue/volFieldValue.C at line 160
    Requested field epsilon not found in database and not processed
--> FOAM Warning : 
    From Foam::label Foam::functionObjects::fieldValues::volFieldValue::writeAll(const Foam::scalarField&, const Foam::scalarField&)
    in file fieldValues/volFieldValue/volFieldValue.C at line 160
    Requested field nuTilda not found in database and not processed

volFieldValue mindomain_vector write:

volFieldValue maxdomain_scalar write:
    max(region0) of p = 0.198222933303
    max(region0) of k = 0.00254459205753
    max(region0) of omega = 9064.87050217
    max(region0) of nut = 3.0082483378e-05
--> FOAM Warning : 
    From Foam::label Foam::functionObjects::fieldValues::volFieldValue::writeAll(const Foam::scalarField&, const Foam::scalarField&)
    in file fieldValues/volFieldValue/volFieldValue.C at line 160
    Requested field epsilon not found in database and not processed
--> FOAM Warning : 
    From Foam::label Foam::functionObjects::fieldValues::volFieldValue::writeAll(const Foam::scalarField&, const Foam::scalarField&)
    in file fieldValues/volFieldValue/volFieldValue.C at line 160
    Requested field nuTilda not found in database and not processed

volFieldValue maxdomain_vector write:

Time = 8

DILUPBiCGStab:  Solving for Ux, Initial residual = 0.0138079355116, Final residual = 4.03154809172e-09, No Iterations 7
DILUPBiCGStab:  Solving for Uy, Initial residual = 0.191522729479, Final residual = 5.48878533915e-09, No Iterations 8
DICPCG:  Solving for p, Initial residual = 0.0421067623235, Final residual = 1.42243299321e-05, No Iterations 101
DICPCG:  Solving for p, Initial residual = 1.43563374044e-05, Final residual = 9.16312724672e-09, No Iterations 5
DICPCG:  Solving for p, Initial residual = 9.16313719959e-09, Final residual = 3.01245266916e-09, No Iterations 3
time step continuity errors : sum local = 8.32657859222e-10, global = 8.46688675812e-11, cumulative = 3.55395406291e-10
DILUPBiCGStab:  Solving for omega, Initial residual = 0.00118261149991, Final residual = 2.75356593566e-09, No Iterations 4
DILUPBiCGStab:  Solving for k, Initial residual = 0.160046089998, Final residual = 9.35882442091e-09, No Iterations 6
ExecutionTime = 0.12 s  ClockTime = 0 s

volFieldValue minmaxdomain_scalar write:
--> FOAM Warning : 
    From Foam::label Foam::functionObjects::fieldValues::volFieldValue::writeAll(const Foam::scalarField&, const Foam::scalarField&)
    in file fieldValues/volFieldValue/volFieldValue.C at line 160
    Requested field epsilon not found in database and not processed
--> FOAM Warning : 
    From Foam::label Foam::functionObjects::fieldValues::volFieldValue::writeAll(const Foam::scalarField&, const Foam::scalarField&)
    in file fieldValues/volFieldValue/volFieldValue.C at line 160
    Requested field nuTilda not found in database and not processed

volFieldValue minmaxdomain_vector write:

volFieldValue mindomain_scalar write:
    min(region0) of p = 0.000595454527521
    min(region0) of k = 2.07548948457e-05
    min(region0) of omega = 2.10428901685
    min(region0) of nut = 1.00237121599e-08
--> FOAM Warning : 
    From Foam::label Foam::functionObjects::fieldValues::volFieldValue::writeAll(const Foam::scalarField&, const Foam::scalarField&)
    in file fieldValues/volFieldValue/volFieldValue.C at line 160
    Requested field epsilon not found in database and not processed
--> FOAM Warning : 
    From Foam::label Foam::functionObjects::fieldValues::volFieldValue::writeAll(const Foam::scalarField&, const Foam::scalarField&)
    in file fieldValues/volFieldValue/volFieldValue.C at line 160
    Requested field nuTilda not found in database and not processed

volFieldValue mindomain_vector write:

volFieldValue maxdomain_scalar write:
    max(region0) of p = 0.198071440112
    max(region0) of k = 0.00257361437408
    max(region0) of omega = 9065.15212431
    max(region0) of nut = 3.15253129855e-05
--> FOAM Warning : 
    From Foam::label Foam::functionObjects::fieldValues::volFieldValue::writeAll(const Foam::scalarField&, const Foam::scalarField&)
    in file fieldValues/volFieldValue/volFieldValue.C at line 160
    Requested field epsilon not found in database and not processed
--> FOAM Warning : 
    From Foam::label Foam::functionObjects::fieldValues::volFieldValue::writeAll(const Foam::scalarField&, const Foam::scalarField&)
    in file fieldValues/volFieldValue/volFieldValue.C at line 160
    Requested field nuTilda not found in database and not processed

volFieldValue maxdomain_vector write:

Time = 9

DILUPBiCGStab:  Solving for Ux, Initial residual = 0.0117687668882, Final residual = 6.33778814263e-09, No Iterations 7
DILUPBiCGStab:  Solving for Uy, Initial residual = 0.178989594668, Final residual = 3.41834709924e-09, No Iterations 8
DICPCG:  Solving for p, Initial residual = 0.0406537459125, Final residual = 1.03717297774e-05, No Iterations 101
DICPCG:  Solving for p, Initial residual = 1.04362931256e-05, Final residual = 3.8894879549e-09, No Iterations 8
DICPCG:  Solving for p, Initial residual = 3.88952667063e-09, Final residual = 4.96247041624e-10, No Iterations 3
time step continuity errors : sum local = 1.36339380663e-10, global = 1.51486324866e-11, cumulative = 3.70544038777e-10
DILUPBiCGStab:  Solving for omega, Initial residual = 0.000538886645594, Final residual = 7.17737766372e-09, No Iterations 3
DILUPBiCGStab:  Solving for k, Initial residual = 0.108451736621, Final residual = 5.79376498998e-09, No Iterations 6
ExecutionTime = 0.13 s  ClockTime = 0 s

volFieldValue minmaxdomain_scalar write:
--> FOAM Warning : 
    From Foam::label Foam::functionObjects::fieldValues::volFieldValue::writeAll(const Foam::scalarField&, const Foam::scalarField&)
    in file fieldValues/volFieldValue/volFieldValue.C at line 160
    Requested field epsilon not found in database and not processed
--> FOAM Warning : 
    From Foam::label Foam::functionObjects::fieldValues::volFieldValue::writeAll(const Foam::scalarField&, const Foam::scalarField&)
    in file fieldValues/volFieldValue/volFieldValue.C at line 160
    Requested field nuTilda not found in database and not processed

volFieldValue minmaxdomain_vector write:

volFieldValue mindomain_scalar write:
    min(region0) of p = 0.000576084183722
    min(region0) of k = 1.73815948511e-05
    min(region0) of omega = 1.980873423
    min(region0) of nut = 8.28638533674e-09
--> FOAM Warning : 
    From Foam::label Foam::functionObjects::fieldValues::volFieldValue::writeAll(const Foam::scalarField&, const Foam::scalarField&)
    in file fieldValues/volFieldValue/volFieldValue.C at line 160
    Requested field epsilon not found in database and not processed
--> FOAM Warning : 
    From Foam::label Foam::functionObjects::fieldValues::volFieldValue::writeAll(const Foam::scalarField&, const Foam::scalarField&)
    in file fieldValues/volFieldValue/volFieldValue.C at line 160
    Requested field nuTilda not found in database and not processed

volFieldValue mindomain_vector write:

volFieldValue maxdomain_scalar write:
    max(region0) of p = 0.198463952623
    max(region0) of k = 0.00259267004749
    max(region0) of omega = 9065.33165282
    max(region0) of nut = 3.23616214902e-05
--> FOAM Warning : 
    From Foam::label Foam::functionObjects::fieldValues::volFieldValue::writeAll(const Foam::scalarField&, const Foam::scalarField&)
    in file fieldValues/volFieldValue/volFieldValue.C at line 160
    Requested field epsilon not found in database and not processed
--> FOAM Warning : 
    From Foam::label Foam::functionObjects::fieldValues::volFieldValue::writeAll(const Foam::scalarField&, const Foam::scalarField&)
    in file fieldValues/volFieldValue/volFieldValue.C at line 160
    Requested field nuTilda not found in database and not processed

volFieldValue maxdomain_vector write:

Time = 10

DILUPBiCGStab:  Solving for Ux, Initial residual = 0.010148265485, Final residual = 4.89267361657e-10, No Iterations 8
DILUPBiCGStab:  Solving for Uy, Initial residual = 0.166818608812, Final residual = 3.24823415026e-09, No Iterations 8
DICPCG:  Solving for p, Initial residual = 0.0389850306746, Final residual = 3.72924840282e-05, No Iterations 100
DICPCG:  Solving for p, Initial residual = 3.74131122602e-05, Final residual = 3.08411927131e-08, No Iterations 7
DICPCG:  Solving for p, Initial residual = 3.08412732944e-08, Final residual = 6.32456733423e-09, No Iterations 3
time step continuity errors : sum local = 1.72628721363e-09, global = 2.24587628219e-10, cumulative = 5.95131666996e-10
DILUPBiCGStab:  Solving for omega, Initial residual = 0.000448011969813, Final residual = 4.9411150705e-09, No Iterations 3
DILUPBiCGStab:  Solving for k, Initial residual = 0.0901917831509, Final residual = 1.86648551404e-10, No Iterations 7
ExecutionTime = 0.14 s  ClockTime = 0 s

volFieldValue minmaxdomain_scalar write:
--> FOAM Warning : 
    From Foam::label Foam::functionObjects::fieldValues::volFieldValue::writeAll(const Foam::scalarField&, const Foam::scalarField&)
    in file fieldValues/volFieldValue/volFieldValue.C at line 160
    Requested field epsilon not found in database and not processed
--> FOAM Warning : 
    From Foam::label Foam::functionObjects::fieldValues::volFieldValue::writeAll(const Foam::scalarField&, const Foam::scalarField&)
    in file fieldValues/volFieldValue/volFieldValue.C at line 160
    Requested field nuTilda not found in database and not processed

volFieldValue minmaxdomain_vector write:

volFieldValue mindomain_scalar write:
    min(region0) of p = 0.000560137586849
    min(region0) of k = 1.56251534642e-05
    min(region0) of omega = 1.88761835319
    min(region0) of nut = 7.09152479657e-09
--> FOAM Warning : 
    From Foam::label Foam::functionObjects::fieldValues::volFieldValue::writeAll(const Foam::scalarField&, const Foam::scalarField&)
    in file fieldValues/volFieldValue/volFieldValue.C at line 160
    Requested field epsilon not found in database and not processed
--> FOAM Warning : 
    From Foam::label Foam::functionObjects::fieldValues::volFieldValue::writeAll(const Foam::scalarField&, const Foam::scalarField&)
    in file fieldValues/volFieldValue/volFieldValue.C at line 160
    Requested field nuTilda not found in database and not processed

volFieldValue mindomain_vector write:

volFieldValue maxdomain_scalar write:
    max(region0) of p = 0.199336460851
    max(region0) of k = 0.00260534236722
    max(region0) of omega = 9065.44952695
    max(region0) of nut = 3.30756053133e-05
--> FOAM Warning : 
    From Foam::label Foam::functionObjects::fieldValues::volFieldValue::writeAll(const Foam::scalarField&, const Foam::scalarField&)
    in file fieldValues/volFieldValue/volFieldValue.C at line 160
    Requested field epsilon not found in database and not processed
--> FOAM Warning : 
    From Foam::label Foam::functionObjects::fieldValues::volFieldValue::writeAll(const Foam::scalarField&, const Foam::scalarField&)
    in file fieldValues/volFieldValue/volFieldValue.C at line 160
    Requested field nuTilda not found in database and not processed

volFieldValue maxdomain_vector write:

Time = 11

DILUPBiCGStab:  Solving for Ux, Initial residual = 0.00880828031326, Final residual = 5.96928398495e-09, No Iterations 6
DILUPBiCGStab:  Solving for Uy, Initial residual = 0.15454590922, Final residual = 7.59315024568e-09, No Iterations 8
DICPCG:  Solving for p, Initial residual = 0.0369515340588, Final residual = 2.8060431536e-05, No Iterations 100
DICPCG:  Solving for p, Initial residual = 2.8071977119e-05, Final residual = 2.02227767298e-08, No Iterations 7
DICPCG:  Solving for p, Initial residual = 2.02228857374e-08, Final residual = 6.18953450709e-09, No Iterations 3
time step continuity errors : sum local = 1.67870319766e-09, global = 4.49169044182e-10, cumulative = 1.04430071118e-09
DILUPBiCGStab:  Solving for omega, Initial residual = 0.000240339743664, Final residual = 3.19195053145e-09, No Iterations 3
DILUPBiCGStab:  Solving for k, Initial residual = 0.0802988808351, Final residual = 8.505327145e-09, No Iterations 5
ExecutionTime = 0.14 s  ClockTime = 0 s

volFieldValue minmaxdomain_scalar write:
--> FOAM Warning : 
    From Foam::label Foam::functionObjects::fieldValues::volFieldValue::writeAll(const Foam::scalarField&, const Foam::scalarField&)
    in file fieldValues/volFieldValue/volFieldValue.C at line 160
    Requested field epsilon not found in database and not processed
--> FOAM Warning : 
    From Foam::label Foam::functionObjects::fieldValues::volFieldValue::writeAll(const Foam::scalarField&, const Foam::scalarField&)
    in file fieldValues/volFieldValue/volFieldValue.C at line 160
    Requested field nuTilda not found in database and not processed

volFieldValue minmaxdomain_vector write:

volFieldValue mindomain_scalar write:
    min(region0) of p = 0.000546883158285
    min(region0) of k = 1.45499562737e-05
    min(region0) of omega = 1.82108965554
    min(region0) of nut = 6.2538073937e-09
--> FOAM Warning : 
    From Foam::label Foam::functionObjects::fieldValues::volFieldValue::writeAll(const Foam::scalarField&, const Foam::scalarField&)
    in file fieldValues/volFieldValue/volFieldValue.C at line 160
    Requested field epsilon not found in database and not processed
--> FOAM Warning : 
    From Foam::label Foam::functionObjects::fieldValues::volFieldValue::writeAll(const Foam::scalarField&, const Foam::scalarField&)
    in file fieldValues/volFieldValue/volFieldValue.C at line 160
    Requested field nuTilda not found in database and not processed

volFieldValue mindomain_vector write:

volFieldValue maxdomain_scalar write:
    max(region0) of p = 0.200660270154
    max(region0) of k = 0.00261390934995
    max(region0) of omega = 9065.52791423
    max(region0) of nut = 3.34453683599e-05
--> FOAM Warning : 
    From Foam::label Foam::functionObjects::fieldValues::volFieldValue::writeAll(const Foam::scalarField&, const Foam::scalarField&)
    in file fieldValues/volFieldValue/volFieldValue.C at line 160
    Requested field epsilon not found in database and not processed
--> FOAM Warning : 
    From Foam::label Foam::functionObjects::fieldValues::volFieldValue::writeAll(const Foam::scalarField&, const Foam::scalarField&)
    in file fieldValues/volFieldValue/volFieldValue.C at line 160
    Requested field nuTilda not found in database and not processed

volFieldValue maxdomain_vector write:

Time = 12

DILUPBiCGStab:  Solving for Ux, Initial residual = 0.00769967472515, Final residual = 4.17650810912e-09, No Iterations 6
DILUPBiCGStab:  Solving for Uy, Initial residual = 0.142414631071, Final residual = 6.58074076405e-09, No Iterations 8
DICPCG:  Solving for p, Initial residual = 0.0348227195474, Final residual = 3.3885525972e-05, No Iterations 86
DICPCG:  Solving for p, Initial residual = 3.38334809471e-05, Final residual = 2.32527236505e-08, No Iterations 99
DICPCG:  Solving for p, Initial residual = 2.32216864797e-08, Final residual = 9.81759556445e-10, No Iterations 3
time step continuity errors : sum local = 2.64651292647e-10, global = 2.38245005817e-13, cumulative = 1.04453895618e-09
DILUPBiCGStab:  Solving for omega, Initial residual = 0.000405962044746, Final residual = 2.92744904966e-09, No Iterations 3
DILUPBiCGStab:  Solving for k, Initial residual = 0.0737320672274, Final residual = 1.54741989536e-09, No Iterations 6
ExecutionTime = 0.16 s  ClockTime = 0 s

volFieldValue minmaxdomain_scalar write:
--> FOAM Warning : 
    From Foam::label Foam::functionObjects::fieldValues::volFieldValue::writeAll(const Foam::scalarField&, const Foam::scalarField&)
    in file fieldValues/volFieldValue/volFieldValue.C at line 160
    Requested field epsilon not found in database and not processed
--> FOAM Warning : 
    From Foam::label Foam::functionObjects::fieldValues::volFieldValue::writeAll(const Foam::scalarField&, const Foam::scalarField&)
    in file fieldValues/volFieldValue/volFieldValue.C at line 160
    Requested field nuTilda not found in database and not processed

volFieldValue minmaxdomain_vector write:

volFieldValue mindomain_scalar write:
    min(region0) of p = 0.00053680198848
    min(region0) of k = 1.41693220493e-05
    min(region0) of omega = 1.78138486964
    min(region0) of nut = 5.66654453546e-09
--> FOAM Warning : 
    From Foam::label Foam::functionObjects::fieldValues::volFieldValue::writeAll(const Foam::scalarField&, const Foam::scalarField&)
    in file fieldValues/volFieldValue/volFieldValue.C at line 160
    Requested field epsilon not found in database and not processed
--> FOAM Warning : 
    From Foam::label Foam::functionObjects::fieldValues::volFieldValue::writeAll(const Foam::scalarField&, const Foam::scalarField&)
    in file fieldValues/volFieldValue/volFieldValue.C at line 160
    Requested field nuTilda not found in database and not processed

volFieldValue mindomain_vector write:

volFieldValue maxdomain_scalar write:
    max(region0) of p = 0.202456036902
    max(region0) of k = 0.00261974672645
    max(region0) of omega = 9065.58090672
    max(region0) of nut = 3.3252233314e-05
--> FOAM Warning : 
    From Foam::label Foam::functionObjects::fieldValues::volFieldValue::writeAll(const Foam::scalarField&, const Foam::scalarField&)
    in file fieldValues/volFieldValue/volFieldValue.C at line 160
    Requested field epsilon not found in database and not processed
--> FOAM Warning : 
    From Foam::label Foam::functionObjects::fieldValues::volFieldValue::writeAll(const Foam::scalarField&, const Foam::scalarField&)
    in file fieldValues/volFieldValue/volFieldValue.C at line 160
    Requested field nuTilda not found in database and not processed

volFieldValue maxdomain_vector write:

Time = 13

DILUPBiCGStab:  Solving for Ux, Initial residual = 0.0068959214564, Final residual = 3.65775815458e-09, No Iterations 6
DILUPBiCGStab:  Solving for Uy, Initial residual = 0.130885799581, Final residual = 4.08101372172e-09, No Iterations 8
DICPCG:  Solving for p, Initial residual = 0.0328221040202, Final residual = 2.31605114382e-05, No Iterations 100
DICPCG:  Solving for p, Initial residual = 2.29818228754e-05, Final residual = 1.73386203795e-08, No Iterations 7
DICPCG:  Solving for p, Initial residual = 1.73386502003e-08, Final residual = 8.25609192807e-09, No Iterations 5
time step continuity errors : sum local = 2.21740713417e-09, global = -3.6833261961e-10, cumulative = 6.76206336574e-10
DILUPBiCGStab:  Solving for omega, Initial residual = 0.000757974625094, Final residual = 2.69370172625e-09, No Iterations 3
DILUPBiCGStab:  Solving for k, Initial residual = 0.0672132693266, Final residual = 1.08765840732e-09, No Iterations 6
ExecutionTime = 0.16 s  ClockTime = 1 s

volFieldValue minmaxdomain_scalar write:
--> FOAM Warning : 
    From Foam::label Foam::functionObjects::fieldValues::volFieldValue::writeAll(const Foam::scalarField&, const Foam::scalarField&)
    in file fieldValues/volFieldValue/volFieldValue.C at line 160
    Requested field epsilon not found in database and not processed
--> FOAM Warning : 
    From Foam::label Foam::functionObjects::fieldValues::volFieldValue::writeAll(const Foam::scalarField&, const Foam::scalarField&)
    in file fieldValues/volFieldValue/volFieldValue.C at line 160
    Requested field nuTilda not found in database and not processed

volFieldValue minmaxdomain_vector write:

volFieldValue mindomain_scalar write:
    min(region0) of p = 0.00053067097364
    min(region0) of k = 1.39709116514e-05
    min(region0) of omega = 1.7435684255
    min(region0) of nut = 5.26781971314e-09
--> FOAM Warning : 
    From Foam::label Foam::functionObjects::fieldValues::volFieldValue::writeAll(const Foam::scalarField&, const Foam::scalarField&)
    in file fieldValues/volFieldValue/volFieldValue.C at line 160
    Requested field epsilon not found in database and not processed
--> FOAM Warning : 
    From Foam::label Foam::functionObjects::fieldValues::volFieldValue::writeAll(const Foam::scalarField&, const Foam::scalarField&)
    in file fieldValues/volFieldValue/volFieldValue.C at line 160
    Requested field nuTilda not found in database and not processed

volFieldValue mindomain_vector write:

volFieldValue maxdomain_scalar write:
    max(region0) of p = 0.204845255688
    max(region0) of k = 0.00262378606959
    max(region0) of omega = 9065.61701459
    max(region0) of nut = 3.39020025161e-05
--> FOAM Warning : 
    From Foam::label Foam::functionObjects::fieldValues::volFieldValue::writeAll(const Foam::scalarField&, const Foam::scalarField&)
    in file fieldValues/volFieldValue/volFieldValue.C at line 160
    Requested field epsilon not found in database and not processed
--> FOAM Warning : 
    From Foam::label Foam::functionObjects::fieldValues::volFieldValue::writeAll(const Foam::scalarField&, const Foam::scalarField&)
    in file fieldValues/volFieldValue/volFieldValue.C at line 160
    Requested field nuTilda not found in database and not processed

volFieldValue maxdomain_vector write:

Time = 14

DILUPBiCGStab:  Solving for Ux, Initial residual = 0.00671490571666, Final residual = 3.50621792504e-09, No Iterations 6
DILUPBiCGStab:  Solving for Uy, Initial residual = 0.120462005581, Final residual = 3.87660603845e-09, No Iterations 8
DICPCG:  Solving for p, Initial residual = 0.0307824441501, Final residual = 2.02783272362e-05, No Iterations 100
DICPCG:  Solving for p, Initial residual = 2.0000900121e-05, Final residual = 1.11819450427e-08, No Iterations 10
DICPCG:  Solving for p, Initial residual = 1.11819903892e-08, Final residual = 4.06141836929e-09, No Iterations 3
time step continuity errors : sum local = 1.09090653397e-09, global = -4.57017487584e-11, cumulative = 6.30504587816e-10
DILUPBiCGStab:  Solving for omega, Initial residual = 0.000498318265616, Final residual = 2.51448254809e-09, No Iterations 3
DILUPBiCGStab:  Solving for k, Initial residual = 0.0602915210483, Final residual = 4.80537433387e-09, No Iterations 5
ExecutionTime = 0.17 s  ClockTime = 1 s

volFieldValue minmaxdomain_scalar write:
--> FOAM Warning : 
    From Foam::label Foam::functionObjects::fieldValues::volFieldValue::writeAll(const Foam::scalarField&, const Foam::scalarField&)
    in file fieldValues/volFieldValue/volFieldValue.C at line 160
    Requested field epsilon not found in database and not processed
--> FOAM Warning : 
    From Foam::label Foam::functionObjects::fieldValues::volFieldValue::writeAll(const Foam::scalarField&, const Foam::scalarField&)
    in file fieldValues/volFieldValue/volFieldValue.C at line 160
    Requested field nuTilda not found in database and not processed

volFieldValue minmaxdomain_vector write:

volFieldValue mindomain_scalar write:
    min(region0) of p = 0.000529722660708
    min(region0) of k = 1.53349439085e-05
    min(region0) of omega = 1.71841619218
    min(region0) of nut = 5.02478172312e-09
--> FOAM Warning : 
    From Foam::label Foam::functionObjects::fieldValues::volFieldValue::writeAll(const Foam::scalarField&, const Foam::scalarField&)
    in file fieldValues/volFieldValue/volFieldValue.C at line 160
    Requested field epsilon not found in database and not processed
--> FOAM Warning : 
    From Foam::label Foam::functionObjects::fieldValues::volFieldValue::writeAll(const Foam::scalarField&, const Foam::scalarField&)
    in file fieldValues/volFieldValue/volFieldValue.C at line 160
    Requested field nuTilda not found in database and not processed

volFieldValue mindomain_vector write:

volFieldValue maxdomain_scalar write:
    max(region0) of p = 0.207980960056
    max(region0) of k = 0.0029862403533
    max(region0) of omega = 9065.64200041
    max(region0) of nut = 4.26047990709e-05
--> FOAM Warning : 
    From Foam::label Foam::functionObjects::fieldValues::volFieldValue::writeAll(const Foam::scalarField&, const Foam::scalarField&)
    in file fieldValues/volFieldValue/volFieldValue.C at line 160
    Requested field epsilon not found in database and not processed
--> FOAM Warning : 
    From Foam::label Foam::functionObjects::fieldValues::volFieldValue::writeAll(const Foam::scalarField&, const Foam::scalarField&)
    in file fieldValues/volFieldValue/volFieldValue.C at line 160
    Requested field nuTilda not found in database and not processed

volFieldValue maxdomain_vector write:

Time = 15

DILUPBiCGStab:  Solving for Ux, Initial residual = 0.00700970601109, Final residual = 4.12087944667e-09, No Iterations 7
DILUPBiCGStab:  Solving for Uy, Initial residual = 0.111396881818, Final residual = 9.48652424633e-09, No Iterations 7
DICPCG:  Solving for p, Initial residual = 0.0287217474015, Final residual = 1.62277390924e-05, No Iterations 100
DICPCG:  Solving for p, Initial residual = 1.5903332363e-05, Final residual = 6.30676949346e-09, No Iterations 10
DICPCG:  Solving for p, Initial residual = 6.30678852345e-09, Final residual = 2.91329067722e-09, No Iterations 3
time step continuity errors : sum local = 7.87027302386e-10, global = -3.02369838533e-11, cumulative = 6.00267603963e-10
DILUPBiCGStab:  Solving for omega, Initial residual = 0.000329562548277, Final residual = 1.71419604741e-09, No Iterations 3
DILUPBiCGStab:  Solving for k, Initial residual = 0.0472232455801, Final residual = 8.42949813326e-09, No Iterations 5
ExecutionTime = 0.18 s  ClockTime = 1 s

volFieldValue minmaxdomain_scalar write:
--> FOAM Warning : 
    From Foam::label Foam::functionObjects::fieldValues::volFieldValue::writeAll(const Foam::scalarField&, const Foam::scalarField&)
    in file fieldValues/volFieldValue/volFieldValue.C at line 160
    Requested field epsilon not found in database and not processed
--> FOAM Warning : 
    From Foam::label Foam::functionObjects::fieldValues::volFieldValue::writeAll(const Foam::scalarField&, const Foam::scalarField&)
    in file fieldValues/volFieldValue/volFieldValue.C at line 160
    Requested field nuTilda not found in database and not processed

volFieldValue minmaxdomain_vector write:

volFieldValue mindomain_scalar write:
    min(region0) of p = 0.000533147823223
    min(region0) of k = 1.70880702073e-05
    min(region0) of omega = 1.70877248663
    min(region0) of nut = 4.91321945767e-09
--> FOAM Warning : 
    From Foam::label Foam::functionObjects::fieldValues::volFieldValue::writeAll(const Foam::scalarField&, const Foam::scalarField&)
    in file fieldValues/volFieldValue/volFieldValue.C at line 160
    Requested field epsilon not found in database and not processed
--> FOAM Warning : 
    From Foam::label Foam::functionObjects::fieldValues::volFieldValue::writeAll(const Foam::scalarField&, const Foam::scalarField&)
    in file fieldValues/volFieldValue/volFieldValue.C at line 160
    Requested field nuTilda not found in database and not processed

volFieldValue mindomain_vector write:

volFieldValue maxdomain_scalar write:
    max(region0) of p = 0.212022197408
    max(region0) of k = 0.00346158934053
    max(region0) of omega = 9065.65947179
    max(region0) of nut = 5.03639622181e-05
--> FOAM Warning : 
    From Foam::label Foam::functionObjects::fieldValues::volFieldValue::writeAll(const Foam::scalarField&, const Foam::scalarField&)
    in file fieldValues/volFieldValue/volFieldValue.C at line 160
    Requested field epsilon not found in database and not processed
--> FOAM Warning : 
    From Foam::label Foam::functionObjects::fieldValues::volFieldValue::writeAll(const Foam::scalarField&, const Foam::scalarField&)
    in file fieldValues/volFieldValue/volFieldValue.C at line 160
    Requested field nuTilda not found in database and not processed

volFieldValue maxdomain_vector write:

Time = 16

DILUPBiCGStab:  Solving for Ux, Initial residual = 0.00689171511924, Final residual = 8.55179933768e-09, No Iterations 6
DILUPBiCGStab:  Solving for Uy, Initial residual = 0.103653758598, Final residual = 8.31631855972e-09, No Iterations 7
DICPCG:  Solving for p, Initial residual = 0.0266101847844, Final residual = 1.55328351217e-05, No Iterations 100
DICPCG:  Solving for p, Initial residual = 1.51523232948e-05, Final residual = 6.80426494476e-09, No Iterations 10
DICPCG:  Solving for p, Initial residual = 6.80424703792e-09, Final residual = 7.01972568711e-09, No Iterations 3
time step continuity errors : sum local = 1.91342022209e-09, global = 3.6083066286e-11, cumulative = 6.36350670249e-10
DILUPBiCGStab:  Solving for omega, Initial residual = 0.000197666219422, Final residual = 1.45434696697e-09, No Iterations 3
DILUPBiCGStab:  Solving for k, Initial residual = 0.0382323083845, Final residual = 6.51460100946e-09, No Iterations 5
ExecutionTime = 0.19 s  ClockTime = 1 s

volFieldValue minmaxdomain_scalar write:
--> FOAM Warning : 
    From Foam::label Foam::functionObjects::fieldValues::volFieldValue::writeAll(const Foam::scalarField&, const Foam::scalarField&)
    in file fieldValues/volFieldValue/volFieldValue.C at line 160
    Requested field epsilon not found in database and not processed
--> FOAM Warning : 
    From Foam::label Foam::functionObjects::fieldValues::volFieldValue::writeAll(const Foam::scalarField&, const Foam::scalarField&)
    in file fieldValues/volFieldValue/volFieldValue.C at line 160
    Requested field nuTilda not found in database and not processed

volFieldValue minmaxdomain_vector write:

volFieldValue mindomain_scalar write:
    min(region0) of p = 0.000540510223039
    min(region0) of k = 2.00039355094e-05
    min(region0) of omega = 1.72160800101
    min(region0) of nut = 4.91273717517e-09
--> FOAM Warning : 
    From Foam::label Foam::functionObjects::fieldValues::volFieldValue::writeAll(const Foam::scalarField&, const Foam::scalarField&)
    in file fieldValues/volFieldValue/volFieldValue.C at line 160
    Requested field epsilon not found in database and not processed
--> FOAM Warning : 
    From Foam::label Foam::functionObjects::fieldValues::volFieldValue::writeAll(const Foam::scalarField&, const Foam::scalarField&)
    in file fieldValues/volFieldValue/volFieldValue.C at line 160
    Requested field nuTilda not found in database and not processed

volFieldValue mindomain_vector write:

volFieldValue maxdomain_scalar write:
    max(region0) of p = 0.216811108709
    max(region0) of k = 0.00385452756146
    max(region0) of omega = 9065.67187006
    max(region0) of nut = 5.84422163851e-05
--> FOAM Warning : 
    From Foam::label Foam::functionObjects::fieldValues::volFieldValue::writeAll(const Foam::scalarField&, const Foam::scalarField&)
    in file fieldValues/volFieldValue/volFieldValue.C at line 160
    Requested field epsilon not found in database and not processed
--> FOAM Warning : 
    From Foam::label Foam::functionObjects::fieldValues::volFieldValue::writeAll(const Foam::scalarField&, const Foam::scalarField&)
    in file fieldValues/volFieldValue/volFieldValue.C at line 160
    Requested field nuTilda not found in database and not processed

volFieldValue maxdomain_vector write:

Time = 17

DILUPBiCGStab:  Solving for Ux, Initial residual = 0.00665519681833, Final residual = 2.17011389353e-09, No Iterations 7
DILUPBiCGStab:  Solving for Uy, Initial residual = 0.0966683993697, Final residual = 8.13375757444e-09, No Iterations 7
DICPCG:  Solving for p, Initial residual = 0.0244954611534, Final residual = 1.35485681226e-05, No Iterations 100
DICPCG:  Solving for p, Initial residual = 1.31664496402e-05, Final residual = 1.03092691509e-08, No Iterations 16
DICPCG:  Solving for p, Initial residual = 1.03092949257e-08, Final residual = 7.44209536855e-09, No Iterations 3
time step continuity errors : sum local = 2.05344353279e-09, global = 3.57709190627e-11, cumulative = 6.72121589311e-10
DILUPBiCGStab:  Solving for omega, Initial residual = 0.000160782756098, Final residual = 1.17351199238e-09, No Iterations 3
DILUPBiCGStab:  Solving for k, Initial residual = 0.0320318935691, Final residual = 3.95937022455e-09, No Iterations 5
ExecutionTime = 0.2 s  ClockTime = 1 s

volFieldValue minmaxdomain_scalar write:
--> FOAM Warning : 
    From Foam::label Foam::functionObjects::fieldValues::volFieldValue::writeAll(const Foam::scalarField&, const Foam::scalarField&)
    in file fieldValues/volFieldValue/volFieldValue.C at line 160
    Requested field epsilon not found in database and not processed
--> FOAM Warning : 
    From Foam::label Foam::functionObjects::fieldValues::volFieldValue::writeAll(const Foam::scalarField&, const Foam::scalarField&)
    in file fieldValues/volFieldValue/volFieldValue.C at line 160
    Requested field nuTilda not found in database and not processed

volFieldValue minmaxdomain_vector write:

volFieldValue mindomain_scalar write:
    min(region0) of p = 0.000551445851011
    min(region0) of k = 2.35469137025e-05
    min(region0) of omega = 1.72800851493
    min(region0) of nut = 5.00461047408e-09
--> FOAM Warning : 
    From Foam::label Foam::functionObjects::fieldValues::volFieldValue::writeAll(const Foam::scalarField&, const Foam::scalarField&)
    in file fieldValues/volFieldValue/volFieldValue.C at line 160
    Requested field epsilon not found in database and not processed
--> FOAM Warning : 
    From Foam::label Foam::functionObjects::fieldValues::volFieldValue::writeAll(const Foam::scalarField&, const Foam::scalarField&)
    in file fieldValues/volFieldValue/volFieldValue.C at line 160
    Requested field nuTilda not found in database and not processed

volFieldValue mindomain_vector write:

volFieldValue maxdomain_scalar write:
    max(region0) of p = 0.222157482455
    max(region0) of k = 0.00418657511375
    max(region0) of omega = 9065.68076534
    max(region0) of nut = 6.66425341614e-05
--> FOAM Warning : 
    From Foam::label Foam::functionObjects::fieldValues::volFieldValue::writeAll(const Foam::scalarField&, const Foam::scalarField&)
    in file fieldValues/volFieldValue/volFieldValue.C at line 160
    Requested field epsilon not found in database and not processed
--> FOAM Warning : 
    From Foam::label Foam::functionObjects::fieldValues::volFieldValue::writeAll(const Foam::scalarField&, const Foam::scalarField&)
    in file fieldValues/volFieldValue/volFieldValue.C at line 160
    Requested field nuTilda not found in database and not processed

volFieldValue maxdomain_vector write:

Time = 18

DILUPBiCGStab:  Solving for Ux, Initial residual = 0.00633318081274, Final residual = 3.55001062055e-09, No Iterations 6
DILUPBiCGStab:  Solving for Uy, Initial residual = 0.0902015435757, Final residual = 7.22265560163e-09, No Iterations 7
DICPCG:  Solving for p, Initial residual = 0.0225309430747, Final residual = 1.13330029145e-05, No Iterations 100
DICPCG:  Solving for p, Initial residual = 1.09952590958e-05, Final residual = 6.47107637701e-09, No Iterations 9
DICPCG:  Solving for p, Initial residual = 6.47111193898e-09, Final residual = 4.32795143779e-09, No Iterations 3
time step continuity errors : sum local = 1.20929922234e-09, global = 1.01812690027e-10, cumulative = 7.73934279338e-10
DILUPBiCGStab:  Solving for omega, Initial residual = 9.07353135296e-05, Final residual = 1.06103901127e-09, No Iterations 3
DILUPBiCGStab:  Solving for k, Initial residual = 0.0278068379664, Final residual = 3.60461568371e-09, No Iterations 5
ExecutionTime = 0.21 s  ClockTime = 1 s

volFieldValue minmaxdomain_scalar write:
--> FOAM Warning : 
    From Foam::label Foam::functionObjects::fieldValues::volFieldValue::writeAll(const Foam::scalarField&, const Foam::scalarField&)
    in file fieldValues/volFieldValue/volFieldValue.C at line 160
    Requested field epsilon not found in database and not processed
--> FOAM Warning : 
    From Foam::label Foam::functionObjects::fieldValues::volFieldValue::writeAll(const Foam::scalarField&, const Foam::scalarField&)
    in file fieldValues/volFieldValue/volFieldValue.C at line 160
    Requested field nuTilda not found in database and not processed

volFieldValue minmaxdomain_vector write:

volFieldValue mindomain_scalar write:
    min(region0) of p = 0.000565705497358
    min(region0) of k = 2.79920794834e-05
    min(region0) of omega = 1.70104583628
    min(region0) of nut = 5.17050414629e-09
--> FOAM Warning : 
    From Foam::label Foam::functionObjects::fieldValues::volFieldValue::writeAll(const Foam::scalarField&, const Foam::scalarField&)
    in file fieldValues/volFieldValue/volFieldValue.C at line 160
    Requested field epsilon not found in database and not processed
--> FOAM Warning : 
    From Foam::label Foam::functionObjects::fieldValues::volFieldValue::writeAll(const Foam::scalarField&, const Foam::scalarField&)
    in file fieldValues/volFieldValue/volFieldValue.C at line 160
    Requested field nuTilda not found in database and not processed

volFieldValue mindomain_vector write:

volFieldValue maxdomain_scalar write:
    max(region0) of p = 0.227858727595
    max(region0) of k = 0.00448289480759
    max(region0) of omega = 9065.68723161
    max(region0) of nut = 7.53212084527e-05
--> FOAM Warning : 
    From Foam::label Foam::functionObjects::fieldValues::volFieldValue::writeAll(const Foam::scalarField&, const Foam::scalarField&)
    in file fieldValues/volFieldValue/volFieldValue.C at line 160
    Requested field epsilon not found in database and not processed
--> FOAM Warning : 
    From Foam::label Foam::functionObjects::fieldValues::volFieldValue::writeAll(const Foam::scalarField&, const Foam::scalarField&)
    in file fieldValues/volFieldValue/volFieldValue.C at line 160
    Requested field nuTilda not found in database and not processed

volFieldValue maxdomain_vector write:

Time = 19

DILUPBiCGStab:  Solving for Ux, Initial residual = 0.00604565089145, Final residual = 7.75513124958e-09, No Iterations 6
DILUPBiCGStab:  Solving for Uy, Initial residual = 0.0841484816674, Final residual = 7.71780078814e-09, No Iterations 7
DICPCG:  Solving for p, Initial residual = 0.0207162754723, Final residual = 1.67060102216e-05, No Iterations 99
DICPCG:  Solving for p, Initial residual = 1.61902617987e-05, Final residual = 1.35599980832e-08, No Iterations 9
DICPCG:  Solving for p, Initial residual = 1.35600347003e-08, Final residual = 9.18848468562e-09, No Iterations 11
time step continuity errors : sum local = 2.60024862282e-09, global = -2.13140063998e-10, cumulative = 5.6079421534e-10
DILUPBiCGStab:  Solving for omega, Initial residual = 9.80274602347e-05, Final residual = 1.00122364579e-09, No Iterations 3
DILUPBiCGStab:  Solving for k, Initial residual = 0.0245654211337, Final residual = 5.49276926689e-09, No Iterations 5
ExecutionTime = 0.22 s  ClockTime = 1 s

volFieldValue minmaxdomain_scalar write:
--> FOAM Warning : 
    From Foam::label Foam::functionObjects::fieldValues::volFieldValue::writeAll(const Foam::scalarField&, const Foam::scalarField&)
    in file fieldValues/volFieldValue/volFieldValue.C at line 160
    Requested field epsilon not found in database and not processed
--> FOAM Warning : 
    From Foam::label Foam::functionObjects::fieldValues::volFieldValue::writeAll(const Foam::scalarField&, const Foam::scalarField&)
    in file fieldValues/volFieldValue/volFieldValue.C at line 160
    Requested field nuTilda not found in database and not processed

volFieldValue minmaxdomain_vector write:

volFieldValue mindomain_scalar write:
    min(region0) of p = 0.000583202360721
    min(region0) of k = 3.29857570563e-05
    min(region0) of omega = 1.67947840895
    min(region0) of nut = 5.39497224822e-09
--> FOAM Warning : 
    From Foam::label Foam::functionObjects::fieldValues::volFieldValue::writeAll(const Foam::scalarField&, const Foam::scalarField&)
    in file fieldValues/volFieldValue/volFieldValue.C at line 160
    Requested field epsilon not found in database and not processed
--> FOAM Warning : 
    From Foam::label Foam::functionObjects::fieldValues::volFieldValue::writeAll(const Foam::scalarField&, const Foam::scalarField&)
    in file fieldValues/volFieldValue/volFieldValue.C at line 160
    Requested field nuTilda not found in database and not processed

volFieldValue mindomain_vector write:

volFieldValue maxdomain_scalar write:
    max(region0) of p = 0.233786346471
    max(region0) of k = 0.00475398550067
    max(region0) of omega = 9065.69197846
    max(region0) of nut = 8.43256962186e-05
--> FOAM Warning : 
    From Foam::label Foam::functionObjects::fieldValues::volFieldValue::writeAll(const Foam::scalarField&, const Foam::scalarField&)
    in file fieldValues/volFieldValue/volFieldValue.C at line 160
    Requested field epsilon not found in database and not processed
--> FOAM Warning : 
    From Foam::label Foam::functionObjects::fieldValues::volFieldValue::writeAll(const Foam::scalarField&, const Foam::scalarField&)
    in file fieldValues/volFieldValue/volFieldValue.C at line 160
    Requested field nuTilda not found in database and not processed

volFieldValue maxdomain_vector write:

Time = 20

DILUPBiCGStab:  Solving for Ux, Initial residual = 0.00576968738328, Final residual = 7.38599765415e-09, No Iterations 6
DILUPBiCGStab:  Solving for Uy, Initial residual = 0.078464233207, Final residual = 8.00277061361e-09, No Iterations 7
DICPCG:  Solving for p, Initial residual = 0.0191259984698, Final residual = 8.87305597211e-06, No Iterations 99
DICPCG:  Solving for p, Initial residual = 8.59514850857e-06, Final residual = 6.8944394555e-09, No Iterations 9
DICPCG:  Solving for p, Initial residual = 6.89445555178e-09, Final residual = 2.8194509543e-09, No Iterations 3
time step continuity errors : sum local = 8.07943914923e-10, global = -5.40137131836e-12, cumulative = 5.55392844022e-10
DILUPBiCGStab:  Solving for omega, Initial residual = 5.77144974373e-05, Final residual = 9.64961345245e-10, No Iterations 3
DILUPBiCGStab:  Solving for k, Initial residual = 0.0220627779126, Final residual = 8.58593231706e-09, No Iterations 5
ExecutionTime = 0.23 s  ClockTime = 1 s

volFieldValue minmaxdomain_scalar write:
--> FOAM Warning : 
    From Foam::label Foam::functionObjects::fieldValues::volFieldValue::writeAll(const Foam::scalarField&, const Foam::scalarField&)
    in file fieldValues/volFieldValue/volFieldValue.C at line 160
    Requested field epsilon not found in database and not processed
--> FOAM Warning : 
    From Foam::label Foam::functionObjects::fieldValues::volFieldValue::writeAll(const Foam::scalarField&, const Foam::scalarField&)
    in file fieldValues/volFieldValue/volFieldValue.C at line 160
    Requested field nuTilda not found in database and not processed

volFieldValue minmaxdomain_vector write:

volFieldValue mindomain_scalar write:
    min(region0) of p = 0.000603988441734
    min(region0) of k = 3.43456030412e-05
    min(region0) of omega = 1.66327470691
    min(region0) of nut = 5.66459204546e-09
--> FOAM Warning : 
    From Foam::label Foam::functionObjects::fieldValues::volFieldValue::writeAll(const Foam::scalarField&, const Foam::scalarField&)
    in file fieldValues/volFieldValue/volFieldValue.C at line 160
    Requested field epsilon not found in database and not processed
--> FOAM Warning : 
    From Foam::label Foam::functionObjects::fieldValues::volFieldValue::writeAll(const Foam::scalarField&, const Foam::scalarField&)
    in file fieldValues/volFieldValue/volFieldValue.C at line 160
    Requested field nuTilda not found in database and not processed

volFieldValue mindomain_vector write:

volFieldValue maxdomain_scalar write:
    max(region0) of p = 0.239835555888
    max(region0) of k = 0.00500529447417
    max(region0) of omega = 9065.6955007
    max(region0) of nut = 9.36956564569e-05
--> FOAM Warning : 
    From Foam::label Foam::functionObjects::fieldValues::volFieldValue::writeAll(const Foam::scalarField&, const Foam::scalarField&)
    in file fieldValues/volFieldValue/volFieldValue.C at line 160
    Requested field epsilon not found in database and not processed
--> FOAM Warning : 
    From Foam::label Foam::functionObjects::fieldValues::volFieldValue::writeAll(const Foam::scalarField&, const Foam::scalarField&)
    in file fieldValues/volFieldValue/volFieldValue.C at line 160
    Requested field nuTilda not found in database and not processed

volFieldValue maxdomain_vector write:

Time = 21

DILUPBiCGStab:  Solving for Ux, Initial residual = 0.00551386949578, Final residual = 9.25920136833e-09, No Iterations 6
DILUPBiCGStab:  Solving for Uy, Initial residual = 0.0731056527711, Final residual = 7.61777675316e-09, No Iterations 7
DICPCG:  Solving for p, Initial residual = 0.0176831192315, Final residual = 9.20486584466e-06, No Iterations 99
DICPCG:  Solving for p, Initial residual = 8.91718813537e-06, Final residual = 6.08717903659e-09, No Iterations 8
DICPCG:  Solving for p, Initial residual = 6.08715050654e-09, Final residual = 4.10213229671e-09, No Iterations 3
time step continuity errors : sum local = 1.18946969151e-09, global = 4.72403525243e-11, cumulative = 6.02633196546e-10
DILUPBiCGStab:  Solving for omega, Initial residual = 7.09007810967e-05, Final residual = 9.83235510988e-10, No Iterations 3
DILUPBiCGStab:  Solving for k, Initial residual = 0.0198835505476, Final residual = 4.34499665635e-09, No Iterations 5
ExecutionTime = 0.24 s  ClockTime = 1 s

volFieldValue minmaxdomain_scalar write:
--> FOAM Warning : 
    From Foam::label Foam::functionObjects::fieldValues::volFieldValue::writeAll(const Foam::scalarField&, const Foam::scalarField&)
    in file fieldValues/volFieldValue/volFieldValue.C at line 160
    Requested field epsilon not found in database and not processed
--> FOAM Warning : 
    From Foam::label Foam::functionObjects::fieldValues::volFieldValue::writeAll(const Foam::scalarField&, const Foam::scalarField&)
    in file fieldValues/volFieldValue/volFieldValue.C at line 160
    Requested field nuTilda not found in database and not processed

volFieldValue minmaxdomain_vector write:

volFieldValue mindomain_scalar write:
    min(region0) of p = 0.000627911731906
    min(region0) of k = 3.38281660765e-05
    min(region0) of omega = 1.65251153977
    min(region0) of nut = 5.96904162813e-09
--> FOAM Warning : 
    From Foam::label Foam::functionObjects::fieldValues::volFieldValue::writeAll(const Foam::scalarField&, const Foam::scalarField&)
    in file fieldValues/volFieldValue/volFieldValue.C at line 160
    Requested field epsilon not found in database and not processed
--> FOAM Warning : 
    From Foam::label Foam::functionObjects::fieldValues::volFieldValue::writeAll(const Foam::scalarField&, const Foam::scalarField&)
    in file fieldValues/volFieldValue/volFieldValue.C at line 160
    Requested field nuTilda not found in database and not processed

volFieldValue mindomain_vector write:

volFieldValue maxdomain_scalar write:
    max(region0) of p = 0.245934571392
    max(region0) of k = 0.00523733645801
    max(region0) of omega = 9065.69813708
    max(region0) of nut = 0.000103391109513
--> FOAM Warning : 
    From Foam::label Foam::functionObjects::fieldValues::volFieldValue::writeAll(const Foam::scalarField&, const Foam::scalarField&)
    in file fieldValues/volFieldValue/volFieldValue.C at line 160
    Requested field epsilon not found in database and not processed
--> FOAM Warning : 
    From Foam::label Foam::functionObjects::fieldValues::volFieldValue::writeAll(const Foam::scalarField&, const Foam::scalarField&)
    in file fieldValues/volFieldValue/volFieldValue.C at line 160
    Requested field nuTilda not found in database and not processed

volFieldValue maxdomain_vector write:

Time = 22

DILUPBiCGStab:  Solving for Ux, Initial residual = 0.00523613106336, Final residual = 9.46517903224e-09, No Iterations 6
DILUPBiCGStab:  Solving for Uy, Initial residual = 0.0682213822288, Final residual = 6.49076356524e-09, No Iterations 7
DICPCG:  Solving for p, Initial residual = 0.0163449509684, Final residual = 9.25457916534e-06, No Iterations 99
DICPCG:  Solving for p, Initial residual = 8.96882528405e-06, Final residual = 9.45954895137e-09, No Iterations 18
DICPCG:  Solving for p, Initial residual = 9.45947264781e-09, Final residual = 4.34660016565e-09, No Iterations 3
time step continuity errors : sum local = 1.27416036562e-09, global = -1.47856053141e-10, cumulative = 4.54777143405e-10
DILUPBiCGStab:  Solving for omega, Initial residual = 5.19414923562e-05, Final residual = 9.63019558952e-10, No Iterations 3
DILUPBiCGStab:  Solving for k, Initial residual = 0.0180179838546, Final residual = 3.52884963992e-09, No Iterations 5
ExecutionTime = 0.25 s  ClockTime = 1 s

volFieldValue minmaxdomain_scalar write:
--> FOAM Warning : 
    From Foam::label Foam::functionObjects::fieldValues::volFieldValue::writeAll(const Foam::scalarField&, const Foam::scalarField&)
    in file fieldValues/volFieldValue/volFieldValue.C at line 160
    Requested field epsilon not found in database and not processed
--> FOAM Warning : 
    From Foam::label Foam::functionObjects::fieldValues::volFieldValue::writeAll(const Foam::scalarField&, const Foam::scalarField&)
    in file fieldValues/volFieldValue/volFieldValue.C at line 160
    Requested field nuTilda not found in database and not processed

volFieldValue minmaxdomain_vector write:

volFieldValue mindomain_scalar write:
    min(region0) of p = 0.000654760677523
    min(region0) of k = 3.33442783155e-05
    min(region0) of omega = 1.64855617168
    min(region0) of nut = 6.29965073602e-09
--> FOAM Warning : 
    From Foam::label Foam::functionObjects::fieldValues::volFieldValue::writeAll(const Foam::scalarField&, const Foam::scalarField&)
    in file fieldValues/volFieldValue/volFieldValue.C at line 160
    Requested field epsilon not found in database and not processed
--> FOAM Warning : 
    From Foam::label Foam::functionObjects::fieldValues::volFieldValue::writeAll(const Foam::scalarField&, const Foam::scalarField&)
    in file fieldValues/volFieldValue/volFieldValue.C at line 160
    Requested field nuTilda not found in database and not processed

volFieldValue mindomain_vector write:

volFieldValue maxdomain_scalar write:
    max(region0) of p = 0.252017641812
    max(region0) of k = 0.00545230200872
    max(region0) of omega = 9065.70012873
    max(region0) of nut = 0.000113516929923
--> FOAM Warning : 
    From Foam::label Foam::functionObjects::fieldValues::volFieldValue::writeAll(const Foam::scalarField&, const Foam::scalarField&)
    in file fieldValues/volFieldValue/volFieldValue.C at line 160
    Requested field epsilon not found in database and not processed
--> FOAM Warning : 
    From Foam::label Foam::functionObjects::fieldValues::volFieldValue::writeAll(const Foam::scalarField&, const Foam::scalarField&)
    in file fieldValues/volFieldValue/volFieldValue.C at line 160
    Requested field nuTilda not found in database and not processed

volFieldValue maxdomain_vector write:

Time = 23

DILUPBiCGStab:  Solving for Ux, Initial residual = 0.00495431129198, Final residual = 9.892493995e-09, No Iterations 6
DILUPBiCGStab:  Solving for Uy, Initial residual = 0.0637356749286, Final residual = 5.40203774106e-09, No Iterations 7
DICPCG:  Solving for p, Initial residual = 0.0151497555848, Final residual = 1.27709337655e-05, No Iterations 99
DICPCG:  Solving for p, Initial residual = 1.23862478088e-05, Final residual = 1.03011464697e-08, No Iterations 11
DICPCG:  Solving for p, Initial residual = 1.03011705371e-08, Final residual = 9.99673827854e-09, No Iterations 3
time step continuity errors : sum local = 2.95864123634e-09, global = 3.62573028395e-11, cumulative = 4.91034446245e-10
DILUPBiCGStab:  Solving for omega, Initial residual = 5.71119487344e-05, Final residual = 9.79309068776e-10, No Iterations 3
DILUPBiCGStab:  Solving for k, Initial residual = 0.0163635068518, Final residual = 3.3707754302e-09, No Iterations 5
ExecutionTime = 0.26 s  ClockTime = 1 s

volFieldValue minmaxdomain_scalar write:
--> FOAM Warning : 
    From Foam::label Foam::functionObjects::fieldValues::volFieldValue::writeAll(const Foam::scalarField&, const Foam::scalarField&)
    in file fieldValues/volFieldValue/volFieldValue.C at line 160
    Requested field epsilon not found in database and not processed
--> FOAM Warning : 
    From Foam::label Foam::functionObjects::fieldValues::volFieldValue::writeAll(const Foam::scalarField&, const Foam::scalarField&)
    in file fieldValues/volFieldValue/volFieldValue.C at line 160
    Requested field nuTilda not found in database and not processed

volFieldValue minmaxdomain_vector write:

volFieldValue mindomain_scalar write:
    min(region0) of p = 0.000684314147336
    min(region0) of k = 3.29999549234e-05
    min(region0) of omega = 1.65326821874
    min(region0) of nut = 6.64959245584e-09
--> FOAM Warning : 
    From Foam::label Foam::functionObjects::fieldValues::volFieldValue::writeAll(const Foam::scalarField&, const Foam::scalarField&)
    in file fieldValues/volFieldValue/volFieldValue.C at line 160
    Requested field epsilon not found in database and not processed
--> FOAM Warning : 
    From Foam::label Foam::functionObjects::fieldValues::volFieldValue::writeAll(const Foam::scalarField&, const Foam::scalarField&)
    in file fieldValues/volFieldValue/volFieldValue.C at line 160
    Requested field nuTilda not found in database and not processed

volFieldValue mindomain_vector write:

volFieldValue maxdomain_scalar write:
    max(region0) of p = 0.258030518771
    max(region0) of k = 0.00565158795962
    max(region0) of omega = 9065.7016456
    max(region0) of nut = 0.000124121591386
--> FOAM Warning : 
    From Foam::label Foam::functionObjects::fieldValues::volFieldValue::writeAll(const Foam::scalarField&, const Foam::scalarField&)
    in file fieldValues/volFieldValue/volFieldValue.C at line 160
    Requested field epsilon not found in database and not processed
--> FOAM Warning : 
    From Foam::label Foam::functionObjects::fieldValues::volFieldValue::writeAll(const Foam::scalarField&, const Foam::scalarField&)
    in file fieldValues/volFieldValue/volFieldValue.C at line 160
    Requested field nuTilda not found in database and not processed

volFieldValue maxdomain_vector write:

Time = 24

DILUPBiCGStab:  Solving for Ux, Initial residual = 0.00466208803941, Final residual = 6.8060457061e-09, No Iterations 6
DILUPBiCGStab:  Solving for Uy, Initial residual = 0.059550443779, Final residual = 4.22506090759e-09, No Iterations 7
DICPCG:  Solving for p, Initial residual = 0.0140983897425, Final residual = 1.22319108827e-05, No Iterations 99
DICPCG:  Solving for p, Initial residual = 1.18761347351e-05, Final residual = 6.00068113816e-09, No Iterations 8
DICPCG:  Solving for p, Initial residual = 6.00064790777e-09, Final residual = 5.89177824399e-09, No Iterations 3
time step continuity errors : sum local = 1.75772658122e-09, global = 2.55755067942e-10, cumulative = 7.46789514187e-10
DILUPBiCGStab:  Solving for omega, Initial residual = 4.82121876347e-05, Final residual = 9.52036454944e-10, No Iterations 3
DILUPBiCGStab:  Solving for k, Initial residual = 0.0148993578514, Final residual = 3.12463553476e-09, No Iterations 5
ExecutionTime = 0.28 s  ClockTime = 1 s

volFieldValue minmaxdomain_scalar write:
--> FOAM Warning : 
    From Foam::label Foam::functionObjects::fieldValues::volFieldValue::writeAll(const Foam::scalarField&, const Foam::scalarField&)
    in file fieldValues/volFieldValue/volFieldValue.C at line 160
    Requested field epsilon not found in database and not processed
--> FOAM Warning : 
    From Foam::label Foam::functionObjects::fieldValues::volFieldValue::writeAll(const Foam::scalarField&, const Foam::scalarField&)
    in file fieldValues/volFieldValue/volFieldValue.C at line 160
    Requested field nuTilda not found in database and not processed

volFieldValue minmaxdomain_vector write:

volFieldValue mindomain_scalar write:
[...]
DILUPBiCGStab:  Solving for k, Initial residual = 1.81075944888e-14, Final residual = 5.31138081961e-18, No Iterations 3
ExecutionTime = 6.54 s  ClockTime = 6 s

volFieldValue minmaxdomain_scalar write:
--> FOAM Warning : 
    From Foam::label Foam::functionObjects::fieldValues::volFieldValue::writeAll(const Foam::scalarField&, const Foam::scalarField&)
    in file fieldValues/volFieldValue/volFieldValue.C at line 160
    Requested field epsilon not found in database and not processed
--> FOAM Warning : 
    From Foam::label Foam::functionObjects::fieldValues::volFieldValue::writeAll(const Foam::scalarField&, const Foam::scalarField&)
    in file fieldValues/volFieldValue/volFieldValue.C at line 160
    Requested field nuTilda not found in database and not processed

volFieldValue minmaxdomain_vector write:

volFieldValue mindomain_scalar write:
    min(region0) of p = 0.00114052913421
    min(region0) of k = 3.88467776126e-05
    min(region0) of omega = 2.13713672539
    min(region0) of nut = 1.35346719122e-08
--> FOAM Warning : 
    From Foam::label Foam::functionObjects::fieldValues::volFieldValue::writeAll(const Foam::scalarField&, const Foam::scalarField&)
    in file fieldValues/volFieldValue/volFieldValue.C at line 160
    Requested field epsilon not found in database and not processed
--> FOAM Warning : 
    From Foam::label Foam::functionObjects::fieldValues::volFieldValue::writeAll(const Foam::scalarField&, const Foam::scalarField&)
    in file fieldValues/volFieldValue/volFieldValue.C at line 160
    Requested field nuTilda not found in database and not processed

volFieldValue mindomain_vector write:

volFieldValue maxdomain_scalar write:
    max(region0) of p = 0.305583681514
    max(region0) of k = 0.00807916263556
    max(region0) of omega = 9065.70703024
    max(region0) of nut = 0.000458519725669
--> FOAM Warning : 
    From Foam::label Foam::functionObjects::fieldValues::volFieldValue::writeAll(const Foam::scalarField&, const Foam::scalarField&)
    in file fieldValues/volFieldValue/volFieldValue.C at line 160
    Requested field epsilon not found in database and not processed
--> FOAM Warning : 
    From Foam::label Foam::functionObjects::fieldValues::volFieldValue::writeAll(const Foam::scalarField&, const Foam::scalarField&)
    in file fieldValues/volFieldValue/volFieldValue.C at line 160
    Requested field nuTilda not found in database and not processed

volFieldValue maxdomain_vector write:

Time = 996

DILUPBiCGStab:  Solving for Ux, Initial residual = 4.43886060251e-14, Final residual = 3.81250111663e-17, No Iterations 3
DILUPBiCGStab:  Solving for Uy, Initial residual = 6.08367674031e-12, Final residual = 3.58877516316e-15, No Iterations 3
DICPCG:  Solving for p, Initial residual = 2.53932079883e-12, Final residual = 5.1898721018e-13, No Iterations 3
DICPCG:  Solving for p, Initial residual = 2.94770453438e-12, Final residual = 5.25437698007e-13, No Iterations 3
DICPCG:  Solving for p, Initial residual = 2.98805598371e-12, Final residual = 6.91748143068e-13, No Iterations 3
time step continuity errors : sum local = 7.22731752241e-13, global = 1.51497610695e-14, cumulative = 1.02487251648e-08
DILUPBiCGStab:  Solving for omega, Initial residual = 1.74733288321e-15, Final residual = 7.14179089278e-20, No Iterations 3
DILUPBiCGStab:  Solving for k, Initial residual = 1.81774280143e-14, Final residual = 1.4472878319e-17, No Iterations 3
ExecutionTime = 6.54 s  ClockTime = 6 s

volFieldValue minmaxdomain_scalar write:
--> FOAM Warning : 
    From Foam::label Foam::functionObjects::fieldValues::volFieldValue::writeAll(const Foam::scalarField&, const Foam::scalarField&)
    in file fieldValues/volFieldValue/volFieldValue.C at line 160
    Requested field epsilon not found in database and not processed
--> FOAM Warning : 
    From Foam::label Foam::functionObjects::fieldValues::volFieldValue::writeAll(const Foam::scalarField&, const Foam::scalarField&)
    in file fieldValues/volFieldValue/volFieldValue.C at line 160
    Requested field nuTilda not found in database and not processed

volFieldValue minmaxdomain_vector write:

volFieldValue mindomain_scalar write:
    min(region0) of p = 0.00114052913421
    min(region0) of k = 3.88467776126e-05
    min(region0) of omega = 2.13713672539
    min(region0) of nut = 1.35346719122e-08
--> FOAM Warning : 
    From Foam::label Foam::functionObjects::fieldValues::volFieldValue::writeAll(const Foam::scalarField&, const Foam::scalarField&)
    in file fieldValues/volFieldValue/volFieldValue.C at line 160
    Requested field epsilon not found in database and not processed
--> FOAM Warning : 
    From Foam::label Foam::functionObjects::fieldValues::volFieldValue::writeAll(const Foam::scalarField&, const Foam::scalarField&)
    in file fieldValues/volFieldValue/volFieldValue.C at line 160
    Requested field nuTilda not found in database and not processed

volFieldValue mindomain_vector write:

volFieldValue maxdomain_scalar write:
    max(region0) of p = 0.305583681514
    max(region0) of k = 0.00807916263556
    max(region0) of omega = 9065.70703024
    max(region0) of nut = 0.000458519725669
--> FOAM Warning : 
    From Foam::label Foam::functionObjects::fieldValues::volFieldValue::writeAll(const Foam::scalarField&, const Foam::scalarField&)
    in file fieldValues/volFieldValue/volFieldValue.C at line 160
    Requested field epsilon not found in database and not processed
--> FOAM Warning : 
    From Foam::label Foam::functionObjects::fieldValues::volFieldValue::writeAll(const Foam::scalarField&, const Foam::scalarField&)
    in file fieldValues/volFieldValue/volFieldValue.C at line 160
    Requested field nuTilda not found in database and not processed

volFieldValue maxdomain_vector write:

Time = 997

DILUPBiCGStab:  Solving for Ux, Initial residual = 4.81624966049e-14, Final residual = 4.31602457508e-17, No Iterations 3
DILUPBiCGStab:  Solving for Uy, Initial residual = 6.62123132312e-12, Final residual = 3.42631952029e-15, No Iterations 3
DICPCG:  Solving for p, Initial residual = 2.69289527514e-12, Final residual = 1.13934586251e-12, No Iterations 3
DICPCG:  Solving for p, Initial residual = 3.05670603165e-12, Final residual = 7.77263156564e-13, No Iterations 3
DICPCG:  Solving for p, Initial residual = 2.96170316461e-12, Final residual = 4.92842501359e-13, No Iterations 3
time step continuity errors : sum local = 7.28270671309e-13, global = 1.46814310083e-14, cumulative = 1.02487398462e-08
DILUPBiCGStab:  Solving for omega, Initial residual = 1.97581461384e-15, Final residual = 3.44262998268e-20, No Iterations 3
DILUPBiCGStab:  Solving for k, Initial residual = 1.90807871798e-14, Final residual = 1.68251085197e-17, No Iterations 3
ExecutionTime = 6.55 s  ClockTime = 6 s

volFieldValue minmaxdomain_scalar write:
--> FOAM Warning : 
    From Foam::label Foam::functionObjects::fieldValues::volFieldValue::writeAll(const Foam::scalarField&, const Foam::scalarField&)
    in file fieldValues/volFieldValue/volFieldValue.C at line 160
    Requested field epsilon not found in database and not processed
--> FOAM Warning : 
    From Foam::label Foam::functionObjects::fieldValues::volFieldValue::writeAll(const Foam::scalarField&, const Foam::scalarField&)
    in file fieldValues/volFieldValue/volFieldValue.C at line 160
    Requested field nuTilda not found in database and not processed

volFieldValue minmaxdomain_vector write:

volFieldValue mindomain_scalar write:
    min(region0) of p = 0.00114052913421
    min(region0) of k = 3.88467776126e-05
    min(region0) of omega = 2.13713672539
    min(region0) of nut = 1.35346719122e-08
--> FOAM Warning : 
    From Foam::label Foam::functionObjects::fieldValues::volFieldValue::writeAll(const Foam::scalarField&, const Foam::scalarField&)
    in file fieldValues/volFieldValue/volFieldValue.C at line 160
    Requested field epsilon not found in database and not processed
--> FOAM Warning : 
    From Foam::label Foam::functionObjects::fieldValues::volFieldValue::writeAll(const Foam::scalarField&, const Foam::scalarField&)
    in file fieldValues/volFieldValue/volFieldValue.C at line 160
    Requested field nuTilda not found in database and not processed

volFieldValue mindomain_vector write:

volFieldValue maxdomain_scalar write:
    max(region0) of p = 0.305583681514
    max(region0) of k = 0.00807916263556
    max(region0) of omega = 9065.70703024
    max(region0) of nut = 0.000458519725669
--> FOAM Warning : 
    From Foam::label Foam::functionObjects::fieldValues::volFieldValue::writeAll(const Foam::scalarField&, const Foam::scalarField&)
    in file fieldValues/volFieldValue/volFieldValue.C at line 160
    Requested field epsilon not found in database and not processed
--> FOAM Warning : 
    From Foam::label Foam::functionObjects::fieldValues::volFieldValue::writeAll(const Foam::scalarField&, const Foam::scalarField&)
    in file fieldValues/volFieldValue/volFieldValue.C at line 160
    Requested field nuTilda not found in database and not processed

volFieldValue maxdomain_vector write:

Time = 998

DILUPBiCGStab:  Solving for Ux, Initial residual = 4.24612025899e-14, Final residual = 3.69891675934e-17, No Iterations 3
DILUPBiCGStab:  Solving for Uy, Initial residual = 6.407696621e-12, Final residual = 3.19379084004e-15, No Iterations 3
DICPCG:  Solving for p, Initial residual = 2.55820440969e-12, Final residual = 7.14452499817e-13, No Iterations 3
DICPCG:  Solving for p, Initial residual = 2.9434309834e-12, Final residual = 5.97991262627e-13, No Iterations 3
DICPCG:  Solving for p, Initial residual = 2.89564370017e-12, Final residual = 7.52758409179e-13, No Iterations 3
time step continuity errors : sum local = 6.85579145172e-13, global = 1.42625188714e-14, cumulative = 1.02487541087e-08
DILUPBiCGStab:  Solving for omega, Initial residual = 1.93309443882e-15, Final residual = 2.38514756451e-20, No Iterations 3
DILUPBiCGStab:  Solving for k, Initial residual = 1.89651109277e-14, Final residual = 3.9290079058e-18, No Iterations 3
ExecutionTime = 6.56 s  ClockTime = 6 s

volFieldValue minmaxdomain_scalar write:
--> FOAM Warning : 
    From Foam::label Foam::functionObjects::fieldValues::volFieldValue::writeAll(const Foam::scalarField&, const Foam::scalarField&)
    in file fieldValues/volFieldValue/volFieldValue.C at line 160
    Requested field epsilon not found in database and not processed
--> FOAM Warning : 
    From Foam::label Foam::functionObjects::fieldValues::volFieldValue::writeAll(const Foam::scalarField&, const Foam::scalarField&)
    in file fieldValues/volFieldValue/volFieldValue.C at line 160
    Requested field nuTilda not found in database and not processed

volFieldValue minmaxdomain_vector write:

volFieldValue mindomain_scalar write:
    min(region0) of p = 0.00114052913421
    min(region0) of k = 3.88467776126e-05
    min(region0) of omega = 2.13713672539
    min(region0) of nut = 1.35346719122e-08
--> FOAM Warning : 
    From Foam::label Foam::functionObjects::fieldValues::volFieldValue::writeAll(const Foam::scalarField&, const Foam::scalarField&)
    in file fieldValues/volFieldValue/volFieldValue.C at line 160
    Requested field epsilon not found in database and not processed
--> FOAM Warning : 
    From Foam::label Foam::functionObjects::fieldValues::volFieldValue::writeAll(const Foam::scalarField&, const Foam::scalarField&)
    in file fieldValues/volFieldValue/volFieldValue.C at line 160
    Requested field nuTilda not found in database and not processed

volFieldValue mindomain_vector write:

volFieldValue maxdomain_scalar write:
    max(region0) of p = 0.305583681514
    max(region0) of k = 0.00807916263556
    max(region0) of omega = 9065.70703024
    max(region0) of nut = 0.000458519725669
--> FOAM Warning : 
    From Foam::label Foam::functionObjects::fieldValues::volFieldValue::writeAll(const Foam::scalarField&, const Foam::scalarField&)
    in file fieldValues/volFieldValue/volFieldValue.C at line 160
    Requested field epsilon not found in database and not processed
--> FOAM Warning : 
    From Foam::label Foam::functionObjects::fieldValues::volFieldValue::writeAll(const Foam::scalarField&, const Foam::scalarField&)
    in file fieldValues/volFieldValue/volFieldValue.C at line 160
    Requested field nuTilda not found in database and not processed

volFieldValue maxdomain_vector write:

Time = 999

DILUPBiCGStab:  Solving for Ux, Initial residual = 4.48490530146e-14, Final residual = 2.81416390649e-17, No Iterations 3
DILUPBiCGStab:  Solving for Uy, Initial residual = 6.03825332646e-12, Final residual = 2.60539357757e-15, No Iterations 3
DICPCG:  Solving for p, Initial residual = 2.57088424876e-12, Final residual = 4.73716462283e-13, No Iterations 3
DICPCG:  Solving for p, Initial residual = 3.01465358853e-12, Final residual = 3.96665983719e-13, No Iterations 3
DICPCG:  Solving for p, Initial residual = 2.90654979234e-12, Final residual = 7.68411720768e-13, No Iterations 3
time step continuity errors : sum local = 7.20272178456e-13, global = 1.37304577157e-14, cumulative = 1.02487678392e-08
DILUPBiCGStab:  Solving for omega, Initial residual = 1.89923589734e-15, Final residual = 1.11670231803e-19, No Iterations 3
DILUPBiCGStab:  Solving for k, Initial residual = 1.97141321485e-14, Final residual = 1.62525193204e-17, No Iterations 3
ExecutionTime = 6.56 s  ClockTime = 6 s

volFieldValue minmaxdomain_scalar write:
--> FOAM Warning : 
    From Foam::label Foam::functionObjects::fieldValues::volFieldValue::writeAll(const Foam::scalarField&, const Foam::scalarField&)
    in file fieldValues/volFieldValue/volFieldValue.C at line 160
    Requested field epsilon not found in database and not processed
--> FOAM Warning : 
    From Foam::label Foam::functionObjects::fieldValues::volFieldValue::writeAll(const Foam::scalarField&, const Foam::scalarField&)
    in file fieldValues/volFieldValue/volFieldValue.C at line 160
    Requested field nuTilda not found in database and not processed

volFieldValue minmaxdomain_vector write:

volFieldValue mindomain_scalar write:
    min(region0) of p = 0.00114052913421
    min(region0) of k = 3.88467776126e-05
    min(region0) of omega = 2.13713672539
    min(region0) of nut = 1.35346719122e-08
--> FOAM Warning : 
    From Foam::label Foam::functionObjects::fieldValues::volFieldValue::writeAll(const Foam::scalarField&, const Foam::scalarField&)
    in file fieldValues/volFieldValue/volFieldValue.C at line 160
    Requested field epsilon not found in database and not processed
--> FOAM Warning : 
    From Foam::label Foam::functionObjects::fieldValues::volFieldValue::writeAll(const Foam::scalarField&, const Foam::scalarField&)
    in file fieldValues/volFieldValue/volFieldValue.C at line 160
    Requested field nuTilda not found in database and not processed

volFieldValue mindomain_vector write:

volFieldValue maxdomain_scalar write:
    max(region0) of p = 0.305583681514
    max(region0) of k = 0.00807916263556
    max(region0) of omega = 9065.70703024
    max(region0) of nut = 0.000458519725669
--> FOAM Warning : 
    From Foam::label Foam::functionObjects::fieldValues::volFieldValue::writeAll(const Foam::scalarField&, const Foam::scalarField&)
    in file fieldValues/volFieldValue/volFieldValue.C at line 160
    Requested field epsilon not found in database and not processed
--> FOAM Warning : 
    From Foam::label Foam::functionObjects::fieldValues::volFieldValue::writeAll(const Foam::scalarField&, const Foam::scalarField&)
    in file fieldValues/volFieldValue/volFieldValue.C at line 160
    Requested field nuTilda not found in database and not processed

volFieldValue maxdomain_vector write:

Time = 1000

DILUPBiCGStab:  Solving for Ux, Initial residual = 5.19927465598e-14, Final residual = 4.42868027124e-17, No Iterations 3
DILUPBiCGStab:  Solving for Uy, Initial residual = 7.27993422732e-12, Final residual = 5.76229837315e-15, No Iterations 3
DICPCG:  Solving for p, Initial residual = 2.62415735121e-12, Final residual = 6.21667945154e-13, No Iterations 3
DICPCG:  Solving for p, Initial residual = 2.9241718072e-12, Final residual = 4.58008244386e-13, No Iterations 3
DICPCG:  Solving for p, Initial residual = 2.87316200957e-12, Final residual = 2.6970596637e-13, No Iterations 3
time step continuity errors : sum local = 7.11315703234e-13, global = 1.34460942919e-14, cumulative = 1.02487812853e-08
DILUPBiCGStab:  Solving for omega, Initial residual = 1.97234196754e-15, Final residual = 5.97043954901e-20, No Iterations 3
DILUPBiCGStab:  Solving for k, Initial residual = 1.96404146694e-14, Final residual = 9.98163939911e-18, No Iterations 3
ExecutionTime = 6.56 s  ClockTime = 6 s

volFieldValue minmaxdomain_scalar write:
--> FOAM Warning : 
    From Foam::label Foam::functionObjects::fieldValues::volFieldValue::writeAll(const Foam::scalarField&, const Foam::scalarField&)
    in file fieldValues/volFieldValue/volFieldValue.C at line 160
    Requested field epsilon not found in database and not processed
--> FOAM Warning : 
    From Foam::label Foam::functionObjects::fieldValues::volFieldValue::writeAll(const Foam::scalarField&, const Foam::scalarField&)
    in file fieldValues/volFieldValue/volFieldValue.C at line 160
    Requested field nuTilda not found in database and not processed

volFieldValue minmaxdomain_vector write:

volFieldValue mindomain_scalar write:
    min(region0) of p = 0.00114052913421
    min(region0) of k = 3.88467776126e-05
    min(region0) of omega = 2.13713672539
    min(region0) of nut = 1.35346719122e-08
--> FOAM Warning : 
    From Foam::label Foam::functionObjects::fieldValues::volFieldValue::writeAll(const Foam::scalarField&, const Foam::scalarField&)
    in file fieldValues/volFieldValue/volFieldValue.C at line 160
    Requested field epsilon not found in database and not processed
--> FOAM Warning : 
    From Foam::label Foam::functionObjects::fieldValues::volFieldValue::writeAll(const Foam::scalarField&, const Foam::scalarField&)
    in file fieldValues/volFieldValue/volFieldValue.C at line 160
    Requested field nuTilda not found in database and not processed

volFieldValue mindomain_vector write:

volFieldValue maxdomain_scalar write:
    max(region0) of p = 0.305583681514
    max(region0) of k = 0.00807916263556
    max(region0) of omega = 9065.70703024
    max(region0) of nut = 0.000458519725669
--> FOAM Warning : 
    From Foam::label Foam::functionObjects::fieldValues::volFieldValue::writeAll(const Foam::scalarField&, const Foam::scalarField&)
    in file fieldValues/volFieldValue/volFieldValue.C at line 160
    Requested field epsilon not found in database and not processed
--> FOAM Warning : 
    From Foam::label Foam::functionObjects::fieldValues::volFieldValue::writeAll(const Foam::scalarField&, const Foam::scalarField&)
    in file fieldValues/volFieldValue/volFieldValue.C at line 160
    Requested field nuTilda not found in database and not processed

volFieldValue maxdomain_vector write:

yPlus yplus_field write:
    writing field yPlus
    patch top y+ : min = 1.12903750006, max = 2.46101110047, average = 1.1703826162
wallShearStress wallShearStress1 write:
    writing field wallShearStress
    min/max(top) = (-0.0137012222225 -3.89161155546e-07 -5.92829525408e-18), (-0.0028838741492 0.000395533543592 1.18391139915e-17)
writeObjects writeObjects1 write:
--> FOAM Warning : 
    From virtual bool Foam::functionObjects::writeObjects::write()
    in file writeObjects/writeObjects.C at line 162
    No corresponding selection for (kOmega:G "(beta*omega)" nuEff "(nut+nu)")
Available objects in database:

37
(
MRFProperties
U
UPrevIter
boundary
cellZones
cumulativeContErr
data
faceZones
faces
fvOptions
fvSchemes
fvSolution
k
kPrevIter
neighbour
nu
nuPrevIter
nut
nutPrevIter
omega
omegaPrevIter
owner
p
pPrevIter
phi
pointZones
points
solutionControl
transportProperties
turbulenceProperties
wallDist
wallShearStress
wallShearStressPrevIter
yPlus
yPlusPrevIter
yWall
yWallPrevIter
)

End

