/*---------------------------------------------------------------------------*\
| =========                 |                                                 |
| \\      /  F ield         | OpenFOAM: The Open Source CFD Toolbox           |
|  \\    /   O peration     | Version:  2206                                  |
|   \\  /    A nd           | Website:  www.openfoam.com                      |
|    \\/     M anipulation  |                                                 |
\*---------------------------------------------------------------------------*/
Build  : _da9441b0-20260127 OPENFOAM=2206 patch=260127 version=2206
Arch   : "LSB;label=32;scalar=64"
Exec   : pimpleFoam
Date   : Jun 12 2026
Time   : 12:56:39
Host   : NotebookdoDan
PID    : 120134
I/O    : uncollated
Case   : /home/danilom/Trabalho_Modelagem_Turbulencia/GT2/SRS/DES_KO_LRN
nProcs : 1
trapFpe: Floating point exception trapping enabled (FOAM_SIGFPE).
fileModificationChecking : Monitoring run-time modified files using timeStampMaster (fileModificationSkew 5, maxFileModificationPolls 20)
allowSystemOperations : Allowing user-supplied system call operations

// * * * * * * * * * * * * * * * * * * * * * * * * * * * * * * * * * * * * * //
Create time

Create mesh for time = 0


PIMPLE: Operating solver in PISO mode

Reading field p

Reading field U

Reading/calculating face flux field phi

Selecting incompressible transport model Newtonian
Selecting turbulence model type LES
Selecting LES turbulence model kOmegaSSTDES
Selecting LES delta type cubeRootVol
--> FOAM Warning : 
    From void Foam::LESModels::cubeRootVolDelta::calcDelta()
    in file LES/LESdeltas/cubeRootVolDelta/cubeRootVolDelta.C at line 58
    Case is 2D, LES is not strictly applicable

Selecting patchDistMethod meshWave
LES
{
    LESModel        kOmegaSSTDES;
    turbulence      on;
    printCoeffs     on;
    delta           cubeRootVol;
    alphaK1         0.85;
    alphaK2         1;
    alphaOmega1     0.5;
    alphaOmega2     0.856;
    gamma1          0.55555556;
    gamma2          0.44;
    beta1           0.075;
    beta2           0.0828;
    betaStar        0.09;
    a1              0.31;
    b1              1;
    c1              10;
    F3              false;
    decayControl    false;
    kInf            0;
    omegaInf        0;
    kappa           0.41;
    CDESkom         0.82;
    CDESkeps        0.6;
}

No MRF models present

No finite volume options present
Courant Number mean: 0.0058285798 max: 0.024936694
wallShearStress wallShearStress1:
    processing all wall patches

--> FOAM IOWarning :
    Found [v1612] 'functionObjectLibs' entry instead of 'libs' in dictionary "system/controlDict.functions.fieldAverage"

    This keyword is 66 months old.

fieldAverage fieldAverage:
    Restarting averaging for fields:
        U: starting averaging at time 0
        p: starting averaging at time 0
        wallShearStress: starting averaging at time 0
        nut: starting averaging at time 0

Courant Number mean: 0.0058285798 max: 0.024936694

Starting time loop

Courant Number mean: 0.0058285798 max: 0.024936694
deltaT = 0.0001200048
Time = 0.000120005

PIMPLE: iteration 1
DILUPBiCGStab:  Solving for Ux, Initial residual = 1, Final residual = 2.9859688e-10, No Iterations 1
DILUPBiCGStab:  Solving for Uy, Initial residual = 0.63128467, Final residual = 1.5543141e-10, No Iterations 1
DICPCG:  Solving for p, Initial residual = 1, Final residual = 0.0082881753, No Iterations 98
DICPCG:  Solving for p, Initial residual = 4.8732224e-05, Final residual = 8.5522519e-07, No Iterations 21
time step continuity errors : sum local = 3.3347999e-14, global = 1.4788325e-15, cumulative = 1.4788325e-15
DICPCG:  Solving for p, Initial residual = 0.010420546, Final residual = 9.6891461e-05, No Iterations 83
DICPCG:  Solving for p, Initial residual = 8.6576977e-05, Final residual = 9.1579014e-07, No Iterations 33
time step continuity errors : sum local = 3.6343716e-14, global = -2.068113e-15, cumulative = -5.8928046e-16
DILUPBiCGStab:  Solving for omega, Initial residual = 0.012254053, Final residual = 1.4194055e-23, No Iterations 3
DILUPBiCGStab:  Solving for k, Initial residual = 1, Final residual = 2.0440307e-20, No Iterations 3
ExecutionTime = 0.09 s  ClockTime = 0 s

volFieldValue minmaxdomain_scalar write:

volFieldValue minmaxdomain_vector write:

volFieldValue mindomain_scalar write:
    min(region0) of p = 0.00079459383
    min(region0) of k = 2.4039535e-05
    min(region0) of omega = 745.00829
    min(region0) of nut = 7.5674314e-14

volFieldValue mindomain_vector write:
    min(region0) of U = (0.26037427 8.2872253e-22 -2.4909402e-32)

volFieldValue maxdomain_scalar write:
    max(region0) of p = 0.15853024
    max(region0) of k = 0.00053167186
    max(region0) of omega = 1.1944345e+09
    max(region0) of nut = 1.9999775e-07

volFieldValue maxdomain_vector write:
    max(region0) of U = (1.000275 0.00022536588 2.2983621e-32)

Courant Number mean: 0.006994595 max: 0.05278021
deltaT = 0.00014401267
Time = 0.000264017

PIMPLE: iteration 1
DILUPBiCGStab:  Solving for Ux, Initial residual = 0.0075821624, Final residual = 1.4604408e-11, No Iterations 1
DILUPBiCGStab:  Solving for Uy, Initial residual = 0.18548025, Final residual = 1.3441904e-09, No Iterations 1
DICPCG:  Solving for p, Initial residual = 0.024038196, Final residual = 0.00023474522, No Iterations 85
DICPCG:  Solving for p, Initial residual = 0.00051114439, Final residual = 4.8463682e-06, No Iterations 31
time step continuity errors : sum local = 7.6626428e-14, global = 2.7374064e-15, cumulative = 2.1481259e-15
DICPCG:  Solving for p, Initial residual = 0.030160447, Final residual = 0.00026608623, No Iterations 72
DICPCG:  Solving for p, Initial residual = 0.00028814993, Final residual = 9.2126325e-07, No Iterations 63
time step continuity errors : sum local = 1.5422041e-14, global = 3.2756513e-15, cumulative = 5.4237772e-15
DILUPBiCGStab:  Solving for omega, Initial residual = 0.1058899, Final residual = 5.1785361e-25, No Iterations 3
DILUPBiCGStab:  Solving for k, Initial residual = 0.035391003, Final residual = 1.9838427e-21, No Iterations 3
ExecutionTime = 0.15 s  ClockTime = 0 s

volFieldValue minmaxdomain_scalar write:

volFieldValue minmaxdomain_vector write:

volFieldValue mindomain_scalar write:
    min(region0) of p = 0.0003416576
    min(region0) of k = 8.6406891e-06
    min(region0) of omega = 739.28538
    min(region0) of nut = 3.7626925e-13

volFieldValue mindomain_vector write:
    min(region0) of U = (0.12605207 -4.9928989e-09 -9.5598708e-33)

volFieldValue maxdomain_scalar write:
    max(region0) of p = 0.11634695
    max(region0) of k = 0.00052550557
    max(region0) of omega = 1.1944345e+09
    max(region0) of nut = 1.9999519e-07

volFieldValue maxdomain_vector write:
    max(region0) of U = (1.000492 0.0004596451 8.7517461e-33)

Courant Number mean: 0.0083939314 max: 0.076353445
deltaT = 0.00017281521
Time = 0.000436833

PIMPLE: iteration 1
DILUPBiCGStab:  Solving for Ux, Initial residual = 0.0027767395, Final residual = 1.7546967e-11, No Iterations 1
DILUPBiCGStab:  Solving for Uy, Initial residual = 0.067858723, Final residual = 3.1646129e-09, No Iterations 1
DICPCG:  Solving for p, Initial residual = 0.032287978, Final residual = 0.00028661984, No Iterations 73
DICPCG:  Solving for p, Initial residual = 0.00029213915, Final residual = 2.9143717e-06, No Iterations 41
time step continuity errors : sum local = 7.5616281e-14, global = 1.6886388e-14, cumulative = 2.2310165e-14
DICPCG:  Solving for p, Initial residual = 0.016480611, Final residual = 0.00015638277, No Iterations 28
DICPCG:  Solving for p, Initial residual = 0.00015410809, Final residual = 9.6004471e-07, No Iterations 85
time step continuity errors : sum local = 2.564662e-14, global = -2.9171196e-16, cumulative = 2.2018453e-14
DILUPBiCGStab:  Solving for omega, Initial residual = 0.005671915, Final residual = 1.3530212e-24, No Iterations 3
DILUPBiCGStab:  Solving for k, Initial residual = 0.08930716, Final residual = 5.3053259e-21, No Iterations 3
ExecutionTime = 0.21 s  ClockTime = 1 s

volFieldValue minmaxdomain_scalar write:

volFieldValue minmaxdomain_vector write:

volFieldValue mindomain_scalar write:
    min(region0) of p = 0.00033792283
    min(region0) of k = 4.8493595e-06
    min(region0) of omega = 732.59714
    min(region0) of nut = 2.3022498e-13

volFieldValue mindomain_vector write:
    min(region0) of U = (0.086772377 -2.5074473e-08 -1.0355928e-32)

volFieldValue maxdomain_scalar write:
    max(region0) of p = 0.11833946
    max(region0) of k = 0.00037551422
    max(region0) of omega = 1.1944345e+09
    max(region0) of nut = 1.999924e-07

volFieldValue maxdomain_vector write:
    max(region0) of U = (1.0006594 0.00082401036 9.5330058e-33)

Courant Number mean: 0.010072734 max: 0.10178057
deltaT = 0.00020737825
Time = 0.000644211

PIMPLE: iteration 1
DILUPBiCGStab:  Solving for Ux, Initial residual = 0.0017816445, Final residual = 2.6502296e-11, No Iterations 1
DILUPBiCGStab:  Solving for Uy, Initial residual = 0.038852192, Final residual = 4.4830392e-09, No Iterations 1
DICPCG:  Solving for p, Initial residual = 0.012010161, Final residual = 0.00011474583, No Iterations 81
DICPCG:  Solving for p, Initial residual = 0.00012564606, Final residual = 1.2304832e-06, No Iterations 39
time step continuity errors : sum local = 4.1889171e-14, global = 2.3361743e-15, cumulative = 2.4354627e-14
DICPCG:  Solving for p, Initial residual = 0.0068918929, Final residual = 6.1212393e-05, No Iterations 69
DICPCG:  Solving for p, Initial residual = 6.1721303e-05, Final residual = 9.8238417e-07, No Iterations 38
time step continuity errors : sum local = 3.3517882e-14, global = 5.0512829e-15, cumulative = 2.940591e-14
DILUPBiCGStab:  Solving for omega, Initial residual = 0.0047494638, Final residual = 2.3405782e-24, No Iterations 3
DILUPBiCGStab:  Solving for k, Initial residual = 0.082786069, Final residual = 1.6081191e-20, No Iterations 3
ExecutionTime = 0.28 s  ClockTime = 1 s

volFieldValue minmaxdomain_scalar write:

volFieldValue minmaxdomain_vector write:

volFieldValue mindomain_scalar write:
    min(region0) of p = 0.00030548008
    min(region0) of k = 3.1936024e-06
    min(region0) of omega = 724.74736
    min(region0) of nut = 2.1224178e-13

volFieldValue mindomain_vector write:
    min(region0) of U = (0.068652594 -6.5649807e-08 -1.0666338e-32)

volFieldValue maxdomain_scalar write:
    max(region0) of p = 0.11018286
    max(region0) of k = 0.00025380935
    max(region0) of omega = 1.1944345e+09
    max(region0) of nut = 1.9998947e-07

volFieldValue maxdomain_vector write:
    max(region0) of U = (1.0007965 0.0013089908 9.8795569e-33)

Courant Number mean: 0.012087299 max: 0.13120529
deltaT = 0.00024884357
Time = 0.000893055

PIMPLE: iteration 1
DILUPBiCGStab:  Solving for Ux, Initial residual = 0.001411237, Final residual = 4.2083631e-11, No Iterations 1
DILUPBiCGStab:  Solving for Uy, Initial residual = 0.028086923, Final residual = 5.1961568e-09, No Iterations 1
DICPCG:  Solving for p, Initial residual = 0.010342614, Final residual = 9.9279125e-05, No Iterations 82
DICPCG:  Solving for p, Initial residual = 0.00011194119, Final residual = 1.047988e-06, No Iterations 34
time step continuity errors : sum local = 4.4452926e-14, global = 2.6348768e-15, cumulative = 3.2040787e-14
DICPCG:  Solving for p, Initial residual = 0.0074913245, Final residual = 7.4087255e-05, No Iterations 68
DICPCG:  Solving for p, Initial residual = 7.5409189e-05, Final residual = 8.7746058e-07, No Iterations 42
time step continuity errors : sum local = 3.685543e-14, global = 5.6890677e-15, cumulative = 3.7729855e-14
DILUPBiCGStab:  Solving for omega, Initial residual = 0.0022052338, Final residual = 4.4350369e-24, No Iterations 3
DILUPBiCGStab:  Solving for k, Initial residual = 0.07291776, Final residual = 5.087205e-20, No Iterations 3
ExecutionTime = 0.35 s  ClockTime = 1 s

volFieldValue minmaxdomain_scalar write:

volFieldValue minmaxdomain_vector write:

volFieldValue mindomain_scalar write:
    min(region0) of p = 0.0002673709
    min(region0) of k = 1.9194128e-06
    min(region0) of omega = 715.54514
    min(region0) of nut = 1.2300936e-13

volFieldValue mindomain_vector write:
    min(region0) of U = (0.05773743 -1.4043355e-07 -1.0978456e-32)

volFieldValue maxdomain_scalar write:
    max(region0) of p = 0.097718519
    max(region0) of k = 0.00017487594
    max(region0) of omega = 1.1944345e+09
    max(region0) of nut = 1.9998631e-07

volFieldValue maxdomain_vector write:
    max(region0) of U = (1.0009196 0.0017795626 1.0030309e-32)

Courant Number mean: 0.01450418 max: 0.16609305
deltaT = 0.00029859741
Time = 0.00119165

PIMPLE: iteration 1
DILUPBiCGStab:  Solving for Ux, Initial residual = 0.0012324799, Final residual = 6.7284905e-11, No Iterations 1
DILUPBiCGStab:  Solving for Uy, Initial residual = 0.023257593, Final residual = 5.9021727e-09, No Iterations 1
DICPCG:  Solving for p, Initial residual = 0.010819061, Final residual = 0.0001055785, No Iterations 81
DICPCG:  Solving for p, Initial residual = 0.0001182626, Final residual = 1.0801697e-06, No Iterations 37
time step continuity errors : sum local = 5.713423e-14, global = 2.8857694e-15, cumulative = 4.0615624e-14
DICPCG:  Solving for p, Initial residual = 0.0083868164, Final residual = 8.1258028e-05, No Iterations 67
DICPCG:  Solving for p, Initial residual = 8.2644777e-05, Final residual = 9.9167093e-07, No Iterations 44
time step continuity errors : sum local = 5.1942792e-14, global = 8.3544513e-15, cumulative = 4.8970076e-14
DILUPBiCGStab:  Solving for omega, Initial residual = 0.0016182484, Final residual = 8.3478541e-24, No Iterations 3
DILUPBiCGStab:  Solving for k, Initial residual = 0.06647173, Final residual = 1.6149556e-19, No Iterations 3
ExecutionTime = 0.41 s  ClockTime = 1 s

volFieldValue minmaxdomain_scalar write:

volFieldValue minmaxdomain_vector write:

volFieldValue mindomain_scalar write:
    min(region0) of p = 0.00023704748
    min(region0) of k = 1.318459e-06
    min(region0) of omega = 704.7937
    min(region0) of nut = 1.0474019e-13

volFieldValue mindomain_vector write:
    min(region0) of U = (0.050181058 -1.0977164e-07 -1.1635877e-32)

volFieldValue maxdomain_scalar write:
    max(region0) of p = 0.085751402
    max(region0) of k = 0.00014986718
    max(region0) of omega = 1.1944345e+09
    max(region0) of nut = 1.9998295e-07

volFieldValue maxdomain_vector write:
    max(region0) of U = (1.0010372 0.0021827599 1.0303316e-32)

Courant Number mean: 0.017404178 max: 0.20800304
deltaT = 0.00035825264
Time = 0.0015499

PIMPLE: iteration 1
DILUPBiCGStab:  Solving for Ux, Initial residual = 0.0011376978, Final residual = 1.0710653e-10, No Iterations 1
DILUPBiCGStab:  Solving for Uy, Initial residual = 0.020487826, Final residual = 8.029055e-09, No Iterations 1
DICPCG:  Solving for p, Initial residual = 0.011155156, Final residual = 0.00010536143, No Iterations 81
DICPCG:  Solving for p, Initial residual = 0.00011654013, Final residual = 1.0802352e-06, No Iterations 38
time step continuity errors : sum local = 7.2584413e-14, global = 3.7899655e-15, cumulative = 5.2760041e-14
DICPCG:  Solving for p, Initial residual = 0.015183183, Final residual = 0.00014947346, No Iterations 2
DICPCG:  Solving for p, Initial residual = 0.00015081741, Final residual = 8.168219e-07, No Iterations 96
time step continuity errors : sum local = 5.4528271e-14, global = -1.1742191e-15, cumulative = 5.1585822e-14
DILUPBiCGStab:  Solving for omega, Initial residual = 0.00088400579, Final residual = 1.6473989e-23, No Iterations 3
DILUPBiCGStab:  Solving for k, Initial residual = 0.064091684, Final residual = 4.9771447e-19, No Iterations 3
ExecutionTime = 0.47 s  ClockTime = 1 s

volFieldValue minmaxdomain_scalar write:

volFieldValue minmaxdomain_vector write:

volFieldValue mindomain_scalar write:
    min(region0) of p = 0.00021305176
    min(region0) of k = 8.7291745e-07
    min(region0) of omega = 692.29124
    min(region0) of nut = 6.9239759e-14

volFieldValue mindomain_vector write:
    min(region0) of U = (0.044521669 -6.4754051e-08 -1.2456097e-32)

volFieldValue maxdomain_scalar write:
    max(region0) of p = 0.075244804
    max(region0) of k = 0.00014983602
    max(region0) of omega = 1.1944345e+09
    max(region0) of nut = 1.9997932e-07

volFieldValue maxdomain_vector write:
    max(region0) of U = (1.001144 0.0032419496 1.1030385e-32)

Courant Number mean: 0.020881304 max: 0.25882612
deltaT = 0.00042981063
Time = 0.00197972

PIMPLE: iteration 1
DILUPBiCGStab:  Solving for Ux, Initial residual = 0.0010883985, Final residual = 1.6893004e-10, No Iterations 1
DILUPBiCGStab:  Solving for Uy, Initial residual = 0.018044495, Final residual = 1.4667737e-10, No Iterations 2
DICPCG:  Solving for p, Initial residual = 0.027752955, Final residual = 0.00024565322, No Iterations 74
DICPCG:  Solving for p, Initial residual = 0.0002746456, Final residual = 2.6275623e-06, No Iterations 39
time step continuity errors : sum local = 2.1842973e-13, global = 2.7600198e-14, cumulative = 7.918602e-14
DICPCG:  Solving for p, Initial residual = 0.029311399, Final residual = 0.00019197638, No Iterations 2
DICPCG:  Solving for p, Initial residual = 0.00019235323, Final residual = 9.1941695e-07, No Iterations 96
time step continuity errors : sum local = 7.6983451e-14, global = -1.5407642e-15, cumulative = 7.7645255e-14
DILUPBiCGStab:  Solving for omega, Initial residual = 0.00057022755, Final residual = 3.3205921e-23, No Iterations 3
DILUPBiCGStab:  Solving for k, Initial residual = 0.063082259, Final residual = 1.4708553e-18, No Iterations 3
ExecutionTime = 0.53 s  ClockTime = 1 s

volFieldValue minmaxdomain_scalar write:

volFieldValue minmaxdomain_vector write:

volFieldValue mindomain_scalar write:
    min(region0) of p = 0.00019240543
    min(region0) of k = 6.0593606e-07
    min(region0) of omega = 677.83365
    min(region0) of nut = 5.7529288e-14

volFieldValue mindomain_vector write:
    min(region0) of U = (0.040066306 -2.3693342e-08 -1.3375937e-32)

volFieldValue maxdomain_scalar write:
    max(region0) of p = 0.06754679
    max(region0) of k = 0.00014980175
    max(region0) of omega = 1.1944345e+09
    max(region0) of nut = 1.9997538e-07

volFieldValue maxdomain_vector write:
    max(region0) of U = (1.0012492 0.0035856839 1.1845932e-32)

Courant Number mean: 0.025052217 max: 0.31985543
deltaT = 0.00051577276
Time = 0.00249549

PIMPLE: iteration 1
DILUPBiCGStab:  Solving for Ux, Initial residual = 0.0010675062, Final residual = 2.6426287e-10, No Iterations 1
DILUPBiCGStab:  Solving for Uy, Initial residual = 0.016577598, Final residual = 2.3329518e-10, No Iterations 2
DICPCG:  Solving for p, Initial residual = 0.022446544, Final residual = 0.00021995433, No Iterations 75
DICPCG:  Solving for p, Initial residual = 0.00024317461, Final residual = 2.1253552e-06, No Iterations 39
time step continuity errors : sum local = 2.2701303e-13, global = 2.8008981e-14, cumulative = 1.0565424e-13
DICPCG:  Solving for p, Initial residual = 0.01200706, Final residual = 0.00011226889, No Iterations 66
DICPCG:  Solving for p, Initial residual = 0.00011358671, Final residual = 8.8364203e-07, No Iterations 83
time step continuity errors : sum local = 9.404745e-14, global = 1.4624433e-15, cumulative = 1.0711668e-13
DILUPBiCGStab:  Solving for omega, Initial residual = 0.00032706577, Final residual = 6.5619706e-23, No Iterations 3
DILUPBiCGStab:  Solving for k, Initial residual = 0.063472494, Final residual = 4.1789198e-18, No Iterations 3
ExecutionTime = 0.6 s  ClockTime = 1 s

volFieldValue minmaxdomain_scalar write:

volFieldValue minmaxdomain_vector write:

volFieldValue mindomain_scalar write:
    min(region0) of p = 0.00017402376
    min(region0) of k = 4.2513277e-07
    min(region0) of omega = 661.22013
    min(region0) of nut = 4.1839376e-14

volFieldValue mindomain_vector write:
    min(region0) of U = (0.036435788 -5.0812303e-09 -1.436724e-32)

volFieldValue maxdomain_scalar write:
    max(region0) of p = 0.055700948
    max(region0) of k = 0.00014976424
    max(region0) of omega = 1.1944345e+09
    max(region0) of nut = 1.9997113e-07

volFieldValue maxdomain_vector write:
    max(region0) of U = (1.0013637 0.0038450851 1.2725099e-32)

Courant Number mean: 0.03006272 max: 0.39413144
deltaT = 0.00061879933
Time = 0.00311429

PIMPLE: iteration 1
DILUPBiCGStab:  Solving for Ux, Initial residual = 0.0010658781, Final residual = 4.1051881e-10, No Iterations 1
DILUPBiCGStab:  Solving for Uy, Initial residual = 0.015805308, Final residual = 3.8348708e-10, No Iterations 2
DICPCG:  Solving for p, Initial residual = 0.015102291, Final residual = 0.00014406166, No Iterations 79
DICPCG:  Solving for p, Initial residual = 0.00015915423, Final residual = 1.5102792e-06, No Iterations 38
time step continuity errors : sum local = 2.0846713e-13, global = 1.4105564e-14, cumulative = 1.2122224e-13
DICPCG:  Solving for p, Initial residual = 0.0075657444, Final residual = 7.1609059e-05, No Iterations 70
DICPCG:  Solving for p, Initial residual = 7.2506971e-05, Final residual = 9.7536442e-07, No Iterations 41
time step continuity errors : sum local = 1.3400435e-13, global = 1.9169929e-14, cumulative = 1.4039217e-13
DILUPBiCGStab:  Solving for omega, Initial residual = 0.00019994713, Final residual = 1.266528e-22, No Iterations 3
DILUPBiCGStab:  Solving for k, Initial residual = 0.065641183, Final residual = 1.1655343e-17, No Iterations 3
ExecutionTime = 0.66 s  ClockTime = 1 s

volFieldValue minmaxdomain_scalar write:

volFieldValue minmaxdomain_vector write:

volFieldValue mindomain_scalar write:
    min(region0) of p = 0.00015765686
    min(region0) of k = 3.1102496e-07
    min(region0) of omega = 642.27624
    min(region0) of nut = 3.4152544e-14

volFieldValue mindomain_vector write:
    min(region0) of U = (0.033401597 -1.5340306e-07 -1.5426032e-32)

volFieldValue maxdomain_scalar write:
    max(region0) of p = 0.049377242
    max(region0) of k = 0.00014972336
    max(region0) of omega = 1.1944345e+09
    max(region0) of nut = 1.9996654e-07

volFieldValue maxdomain_vector write:
    max(region0) of U = (1.0015233 0.0042889875 1.3664451e-32)

Courant Number mean: 0.03606788 max: 0.48436375
deltaT = 0.00074228273
Time = 0.00385657

PIMPLE: iteration 1
DILUPBiCGStab:  Solving for Ux, Initial residual = 0.0010785448, Final residual = 6.3152763e-10, No Iterations 1
DILUPBiCGStab:  Solving for Uy, Initial residual = 0.015173847, Final residual = 6.3118591e-10, No Iterations 2
DICPCG:  Solving for p, Initial residual = 0.01079234, Final residual = 0.00010095453, No Iterations 82
DICPCG:  Solving for p, Initial residual = 0.00011154299, Final residual = 1.0090934e-06, No Iterations 37
time step continuity errors : sum local = 1.8002316e-13, global = 9.0273841e-15, cumulative = 1.4941956e-13
DICPCG:  Solving for p, Initial residual = 0.0060376216, Final residual = 5.8656816e-05, No Iterations 71
DICPCG:  Solving for p, Initial residual = 5.9430874e-05, Final residual = 9.6568881e-07, No Iterations 38
time step continuity errors : sum local = 1.7132049e-13, global = 2.4153669e-14, cumulative = 1.7357323e-13
DILUPBiCGStab:  Solving for omega, Initial residual = 0.00011720102, Final residual = 2.4137194e-22, No Iterations 3
DILUPBiCGStab:  Solving for k, Initial residual = 0.068883171, Final residual = 3.1393368e-17, No Iterations 3
ExecutionTime = 0.73 s  ClockTime = 1 s

volFieldValue minmaxdomain_scalar write:

volFieldValue minmaxdomain_vector write:

volFieldValue mindomain_scalar write:
    min(region0) of p = 0.00014298096
    min(region0) of k = 2.329576e-07
    min(region0) of omega = 620.86391
    min(region0) of nut = 2.6687614e-14

volFieldValue mindomain_vector write:
    min(region0) of U = (0.030816231 -3.4321188e-06 -1.6538893e-32)

volFieldValue maxdomain_scalar write:
    max(region0) of p = 0.046105635
    max(region0) of k = 0.00014967902
    max(region0) of omega = 1.1944345e+09
    max(region0) of nut = 1.9996165e-07

volFieldValue maxdomain_vector write:
    max(region0) of U = (1.0020711 0.0048083559 1.46522e-32)

Courant Number mean: 0.043265439 max: 0.5931705
deltaT = 0.00089100486
Time = 0.00474757

PIMPLE: iteration 1
DILUPBiCGStab:  Solving for Ux, Initial residual = 0.0011031621, Final residual = 9.6447272e-10, No Iterations 1
DILUPBiCGStab:  Solving for Uy, Initial residual = 0.014657329, Final residual = 1.060244e-09, No Iterations 2
DICPCG:  Solving for p, Initial residual = 0.0090854606, Final residual = 8.1961278e-05, No Iterations 83
DICPCG:  Solving for p, Initial residual = 9.0590148e-05, Final residual = 9.5943033e-07, No Iterations 33
time step continuity errors : sum local = 2.2166722e-13, global = 1.3973027e-14, cumulative = 1.8754625e-13
DICPCG:  Solving for p, Initial residual = 0.0055514408, Final residual = 5.3031137e-05, No Iterations 71
DICPCG:  Solving for p, Initial residual = 5.3735401e-05, Final residual = 9.6798583e-07, No Iterations 37
time step continuity errors : sum local = 2.2240424e-13, global = 2.9961598e-14, cumulative = 2.1750785e-13
DILUPBiCGStab:  Solving for omega, Initial residual = 6.9830757e-05, Final residual = 4.4843848e-22, No Iterations 3
DILUPBiCGStab:  Solving for k, Initial residual = 0.072823896, Final residual = 8.1562348e-17, No Iterations 3
ExecutionTime = 0.79 s  ClockTime = 1 s

volFieldValue minmaxdomain_scalar write:

volFieldValue minmaxdomain_vector write:

volFieldValue mindomain_scalar write:
    min(region0) of p = 0.00012963901
    min(region0) of k = 1.7480053e-07
    min(region0) of omega = 596.88152
    min(region0) of nut = 2.2605145e-14

volFieldValue mindomain_vector write:
    min(region0) of U = (0.028579347 -8.287635e-06 -1.7685963e-32)

volFieldValue maxdomain_scalar write:
    max(region0) of p = 0.043241172
    max(region0) of k = 0.00014963112
    max(region0) of omega = 1.1944345e+09
    max(region0) of nut = 1.9995642e-07

volFieldValue maxdomain_vector write:
    max(region0) of U = (1.0025917 0.0054223477 1.5670875e-32)

Courant Number mean: 0.051934131 max: 0.7249681
deltaT = 0.0010690144
Time = 0.00581659

PIMPLE: iteration 1
DILUPBiCGStab:  Solving for Ux, Initial residual = 0.001136891, Final residual = 1.4592984e-09, No Iterations 1
DILUPBiCGStab:  Solving for Uy, Initial residual = 0.014233188, Final residual = 1.7973792e-09, No Iterations 2
DICPCG:  Solving for p, Initial residual = 0.0073726245, Final residual = 6.3714903e-05, No Iterations 84
DICPCG:  Solving for p, Initial residual = 7.0323836e-05, Final residual = 8.9234313e-07, No Iterations 31
time step continuity errors : sum local = 2.677294e-13, global = 1.467162e-14, cumulative = 2.3217947e-13
DICPCG:  Solving for p, Initial residual = 0.0051302734, Final residual = 4.2635755e-05, No Iterations 72
DICPCG:  Solving for p, Initial residual = 4.3174552e-05, Final residual = 9.4444044e-07, No Iterations 34
time step continuity errors : sum local = 2.8204562e-13, global = 3.1555753e-14, cumulative = 2.6373522e-13
DILUPBiCGStab:  Solving for omega, Initial residual = 4.0469431e-05, Final residual = 8.1346765e-22, No Iterations 3
DILUPBiCGStab:  Solving for k, Initial residual = 0.076982336, Final residual = 1.9685458e-16, No Iterations 3
ExecutionTime = 0.84 s  ClockTime = 1 s

volFieldValue minmaxdomain_scalar write:

volFieldValue minmaxdomain_vector write:

volFieldValue mindomain_scalar write:
    min(region0) of p = -0.001406736
    min(region0) of k = 1.3403383e-07
    min(region0) of omega = 570.32777
    min(region0) of nut = 1.8984012e-14

volFieldValue mindomain_vector write:
    min(region0) of U = (0.026619877 -1.041274e-05 -1.8862611e-32)

volFieldValue maxdomain_scalar write:
    max(region0) of p = 0.040053005
    max(region0) of k = 0.00014957956
    max(region0) of omega = 1.1944345e+09
    max(region0) of nut = 1.9995085e-07

volFieldValue maxdomain_vector write:
    max(region0) of U = (1.0030694 0.0060867024 1.6716479e-32)

Courant Number mean: 0.062309962 max: 0.88508274
deltaT = 0.0012828173
Time = 0.00709941

PIMPLE: iteration 1
DILUPBiCGStab:  Solving for Ux, Initial residual = 0.0011787194, Final residual = 2.1910666e-09, No Iterations 1
DILUPBiCGStab:  Solving for Uy, Initial residual = 0.013907126, Final residual = 2.8903305e-09, No Iterations 2
DICPCG:  Solving for p, Initial residual = 0.0056674927, Final residual = 4.5449208e-05, No Iterations 85
DICPCG:  Solving for p, Initial residual = 5.0062042e-05, Final residual = 8.5929811e-07, No Iterations 29
time step continuity errors : sum local = 3.3661005e-13, global = 1.1388658e-14, cumulative = 2.7512388e-13
DICPCG:  Solving for p, Initial residual = 0.005425122, Final residual = 5.0064075e-05, No Iterations 71
DICPCG:  Solving for p, Initial residual = 5.0632368e-05, Final residual = 9.9338265e-07, No Iterations 35
time step continuity errors : sum local = 3.881081e-13, global = 5.0186319e-14, cumulative = 3.253102e-13
DILUPBiCGStab:  Solving for omega, Initial residual = 2.4135116e-05, Final residual = 1.5147878e-21, No Iterations 3
DILUPBiCGStab:  Solving for k, Initial residual = 0.081107276, Final residual = 4.728159e-16, No Iterations 3
ExecutionTime = 0.9 s  ClockTime = 1 s

volFieldValue minmaxdomain_scalar write:

volFieldValue minmaxdomain_vector write:

volFieldValue mindomain_scalar write:
    min(region0) of p = -0.0038409915
    min(region0) of k = 1.0510576e-07
    min(region0) of omega = 541.28072
    min(region0) of nut = 1.6414453e-14

volFieldValue mindomain_vector write:
    min(region0) of U = (0.02488579 -9.7136497e-06 -2.0036736e-32)

volFieldValue maxdomain_scalar write:
    max(region0) of p = 0.037164018
    max(region0) of k = 0.00014952426
    max(region0) of omega = 1.1944345e+09
    max(region0) of nut = 1.9994492e-07

volFieldValue maxdomain_vector write:
    max(region0) of U = (1.0035283 0.0067955451 1.7760698e-32)

Courant Number mean: 0.074772161 max: 1.0793681
deltaT = 0.0015393808
Time = 0.00863879

PIMPLE: iteration 1
DILUPBiCGStab:  Solving for Ux, Initial residual = 0.0012274494, Final residual = 3.2627752e-09, No Iterations 1
DILUPBiCGStab:  Solving for Uy, Initial residual = 0.013642655, Final residual = 4.6274794e-09, No Iterations 2
DICPCG:  Solving for p, Initial residual = 0.0050151856, Final residual = 4.2390522e-05, No Iterations 85
DICPCG:  Solving for p, Initial residual = 4.6595247e-05, Final residual = 9.9630775e-07, No Iterations 27
time step continuity errors : sum local = 5.126814e-13, global = 1.1416764e-14, cumulative = 3.3672696e-13
DICPCG:  Solving for p, Initial residual = 0.0057275173, Final residual = 5.516633e-05, No Iterations 70
DICPCG:  Solving for p, Initial residual = 5.5702719e-05, Final residual = 9.4833372e-07, No Iterations 38
time step continuity errors : sum local = 4.8809665e-13, global = 7.1316607e-14, cumulative = 4.0804357e-13
DILUPBiCGStab:  Solving for omega, Initial residual = 1.4103166e-05, Final residual = 2.8710762e-21, No Iterations 3
DILUPBiCGStab:  Solving for k, Initial residual = 0.084844619, Final residual = 1.4297173e-15, No Iterations 3
ExecutionTime = 0.96 s  ClockTime = 1 s

volFieldValue minmaxdomain_scalar write:

volFieldValue minmaxdomain_vector write:

volFieldValue mindomain_scalar write:
    min(region0) of p = -0.0063344782
    min(region0) of k = 8.3982184e-08
    min(region0) of omega = 509.93338
    min(region0) of nut = 1.4223166e-14

volFieldValue mindomain_vector write:
    min(region0) of U = (0.02333795 -8.0335969e-06 -2.1190083e-32)

volFieldValue maxdomain_scalar write:
    max(region0) of p = 0.034911633
    max(region0) of k = 0.00014946515
    max(region0) of omega = 1.1944345e+09
    max(region0) of nut = 1.9993863e-07

volFieldValue maxdomain_vector write:
    max(region0) of U = (1.0039291 0.0075504949 1.8787467e-32)

Courant Number mean: 0.089726858 max: 1.3140651
deltaT = 0.0018461103
Time = 0.0104849

PIMPLE: iteration 1
DILUPBiCGStab:  Solving for Ux, Initial residual = 0.0012815528, Final residual = 4.8147476e-09, No Iterations 1
DILUPBiCGStab:  Solving for Uy, Initial residual = 0.013413425, Final residual = 7.4720382e-09, No Iterations 2
DICPCG:  Solving for p, Initial residual = 0.0052402047, Final residual = 4.0852412e-05, No Iterations 85
DICPCG:  Solving for p, Initial residual = 4.4833733e-05, Final residual = 9.8481442e-07, No Iterations 26
time step continuity errors : sum local = 6.6867208e-13, global = 1.8097197e-14, cumulative = 4.2614077e-13
DICPCG:  Solving for p, Initial residual = 0.005796273, Final residual = 5.5384093e-05, No Iterations 69
DICPCG:  Solving for p, Initial residual = 5.5859702e-05, Final residual = 9.5650889e-07, No Iterations 36
time step continuity errors : sum local = 6.50793e-13, global = 9.700132e-14, cumulative = 5.2314209e-13
DILUPBiCGStab:  Solving for omega, Initial residual = 8.562343e-06, Final residual = 5.7667174e-21, No Iterations 3
DILUPBiCGStab:  Solving for k, Initial residual = 0.087878033, Final residual = 4.299202e-15, No Iterations 3
ExecutionTime = 1.02 s  ClockTime = 1 s

volFieldValue minmaxdomain_scalar write:

volFieldValue minmaxdomain_vector write:

volFieldValue mindomain_scalar write:
    min(region0) of p = -0.0089593371
    min(region0) of k = 6.6610338e-08
    min(region0) of omega = 476.61765
    min(region0) of nut = 1.2490516e-14

volFieldValue mindomain_vector write:
    min(region0) of U = (0.021946249 -1.5010217e-05 -2.2300244e-32)

volFieldValue maxdomain_scalar write:
    max(region0) of p = 0.033180662
    max(region0) of k = 0.00014940216
    max(region0) of omega = 1.1944345e+09
    max(region0) of nut = 1.9993197e-07

volFieldValue maxdomain_vector write:
    max(region0) of U = (1.0043836 0.0083525556 1.9777005e-32)

Courant Number mean: 0.10760574 max: 1.5964951
deltaT = 0.0022136803
Time = 0.0126986

PIMPLE: iteration 1
DILUPBiCGStab:  Solving for Ux, Initial residual = 0.0013404357, Final residual = 7.0375251e-09, No Iterations 1
DILUPBiCGStab:  Solving for Uy, Initial residual = 0.013223375, Final residual = 7.0234103e-10, No Iterations 2
DICPCG:  Solving for p, Initial residual = 0.0057594514, Final residual = 5.1702557e-05, No Iterations 84
DICPCG:  Solving for p, Initial residual = 5.6659851e-05, Final residual = 8.1501208e-07, No Iterations 29
time step continuity errors : sum local = 7.3203467e-13, global = 4.7891161e-14, cumulative = 5.7103325e-13
DICPCG:  Solving for p, Initial residual = 0.005468006, Final residual = 5.3033823e-05, No Iterations 67
DICPCG:  Solving for p, Initial residual = 5.3463934e-05, Final residual = 9.7816061e-07, No Iterations 36
time step continuity errors : sum local = 8.8087972e-13, global = 1.4755462e-13, cumulative = 7.1858787e-13
DILUPBiCGStab:  Solving for omega, Initial residual = 4.8339747e-06, Final residual = 1.2402955e-20, No Iterations 3
DILUPBiCGStab:  Solving for k, Initial residual = 0.089946606, Final residual = 1.2422612e-14, No Iterations 3
ExecutionTime = 1.08 s  ClockTime = 1 s

volFieldValue minmaxdomain_scalar write:

volFieldValue minmaxdomain_vector write:

volFieldValue mindomain_scalar write:
    min(region0) of p = -0.011682998
    min(region0) of k = 5.3558973e-08
    min(region0) of omega = 441.76662
    min(region0) of nut = 1.1020056e-14

volFieldValue mindomain_vector write:
    min(region0) of U = (0.020687063 -2.4514004e-05 -2.3327345e-32)

volFieldValue maxdomain_scalar write:
    max(region0) of p = 0.031799661
    max(region0) of k = 0.00014933522
    max(region0) of omega = 1.1944345e+09
    max(region0) of nut = 1.9992496e-07

volFieldValue maxdomain_vector write:
    max(region0) of U = (1.0048073 0.0091998608 2.0694022e-32)

Courant Number mean: 0.12903103 max: 1.9369861
deltaT = 0.0026540361
Time = 0.0153526

PIMPLE: iteration 1
DILUPBiCGStab:  Solving for Ux, Initial residual = 0.0014031622, Final residual = 2.1305464e-10, No Iterations 2
DILUPBiCGStab:  Solving for Uy, Initial residual = 0.013050548, Final residual = 1.3242372e-09, No Iterations 2
DICPCG:  Solving for p, Initial residual = 0.0060790244, Final residual = 4.9043258e-05, No Iterations 84
DICPCG:  Solving for p, Initial residual = 5.3620319e-05, Final residual = 8.443823e-07, No Iterations 29
time step continuity errors : sum local = 1.0056318e-12, global = 4.0119362e-14, cumulative = 7.5870724e-13
DICPCG:  Solving for p, Initial residual = 0.0051418526, Final residual = 4.976264e-05, No Iterations 67
DICPCG:  Solving for p, Initial residual = 5.0127935e-05, Final residual = 9.3736701e-07, No Iterations 30
time step continuity errors : sum local = 1.1204309e-12, global = 1.3909994e-13, cumulative = 8.9780717e-13
DILUPBiCGStab:  Solving for omega, Initial residual = 2.9866643e-06, Final residual = 3.5494794e-20, No Iterations 3
DILUPBiCGStab:  Solving for k, Initial residual = 0.0908224, Final residual = 3.4311196e-14, No Iterations 3
ExecutionTime = 1.13 s  ClockTime = 1 s

volFieldValue minmaxdomain_scalar write:

volFieldValue minmaxdomain_vector write:

volFieldValue mindomain_scalar write:
    min(region0) of p = -0.014437222
    min(region0) of k = 4.3687513e-08
    min(region0) of omega = 405.91466
    min(region0) of nut = 9.7991161e-15

volFieldValue mindomain_vector write:
    min(region0) of U = (0.019541548 -4.1664101e-05 -2.424259e-32)

volFieldValue maxdomain_scalar write:
    max(region0) of p = 0.030697253
    max(region0) of k = 0.00014926428
    max(region0) of omega = 1.1944345e+09
    max(region0) of nut = 1.9991758e-07

volFieldValue maxdomain_vector write:
    max(region0) of U = (1.0053025 0.010096718 2.151298e-32)

Courant Number mean: 0.15469906 max: 2.3499847
deltaT = 0.0031865611
Time = 0.0185392

PIMPLE: iteration 1
DILUPBiCGStab:  Solving for Ux, Initial residual = 0.0014701496, Final residual = 3.5962165e-10, No Iterations 2
DILUPBiCGStab:  Solving for Uy, Initial residual = 0.01290769, Final residual = 2.4412926e-09, No Iterations 2
DICPCG:  Solving for p, Initial residual = 0.006420848, Final residual = 5.0854879e-05, No Iterations 84
DICPCG:  Solving for p, Initial residual = 5.5584628e-05, Final residual = 9.9344904e-07, No Iterations 31
time step continuity errors : sum local = 1.5733668e-12, global = 3.5087366e-14, cumulative = 9.3289454e-13
DICPCG:  Solving for p, Initial residual = 0.0050058177, Final residual = 4.8920501e-05, No Iterations 67
DICPCG:  Solving for p, Initial residual = 4.9252732e-05, Final residual = 9.6356416e-07, No Iterations 32
time step continuity errors : sum local = 1.533064e-12, global = 1.4329707e-13, cumulative = 1.0761916e-12
DILUPBiCGStab:  Solving for omega, Initial residual = 1.7174921e-06, Final residual = 7.5526995e-20, No Iterations 3
DILUPBiCGStab:  Solving for k, Initial residual = 0.090402015, Final residual = 9.1643945e-14, No Iterations 3
ExecutionTime = 1.19 s  ClockTime = 1 s

volFieldValue minmaxdomain_scalar write:

volFieldValue minmaxdomain_vector write:

volFieldValue mindomain_scalar write:
    min(region0) of p = -0.017206729
    min(region0) of k = 3.6133188e-08
    min(region0) of omega = 369.61431
    min(region0) of nut = 8.7542932e-15

volFieldValue mindomain_vector write:
    min(region0) of U = (0.018494453 -6.5294312e-05 -2.5052615e-32)

volFieldValue maxdomain_scalar write:
    max(region0) of p = 0.029817905
    max(region0) of k = 0.00014918931
    max(region0) of omega = 1.1944345e+09
    max(region0) of nut = 1.9990985e-07

volFieldValue maxdomain_vector write:
    max(region0) of U = (1.0058008 0.011026721 2.2344307e-32)

Courant Number mean: 0.18573973 max: 2.8529641
deltaT = 0.0038189137
Time = 0.0223581

PIMPLE: iteration 1
DILUPBiCGStab:  Solving for Ux, Initial residual = 0.0015375071, Final residual = 5.9492044e-10, No Iterations 2
DILUPBiCGStab:  Solving for Uy, Initial residual = 0.012729139, Final residual = 4.3407436e-09, No Iterations 2
DICPCG:  Solving for p, Initial residual = 0.0065267639, Final residual = 6.4994961e-05, No Iterations 82
DICPCG:  Solving for p, Initial residual = 7.0749219e-05, Final residual = 8.8440959e-07, No Iterations 33
time step continuity errors : sum local = 1.8634977e-12, global = 8.8060552e-14, cumulative = 1.1642522e-12
DICPCG:  Solving for p, Initial residual = 0.0048098481, Final residual = 4.1013346e-05, No Iterations 68
DICPCG:  Solving for p, Initial residual = 4.1259087e-05, Final residual = 9.4975323e-07, No Iterations 25
time step continuity errors : sum local = 2.0117898e-12, global = 2.3774267e-13, cumulative = 1.4019948e-12
DILUPBiCGStab:  Solving for omega, Initial residual = 1.2081873e-06, Final residual = 1.3717095e-19, No Iterations 3
DILUPBiCGStab:  Solving for k, Initial residual = 0.088435188, Final residual = 2.3035764e-13, No Iterations 3
ExecutionTime = 1.25 s  ClockTime = 2 s

volFieldValue minmaxdomain_scalar write:

volFieldValue minmaxdomain_vector write:

volFieldValue mindomain_scalar write:
    min(region0) of p = -0.019909192
    min(region0) of k = 2.9490787e-08
    min(region0) of omega = 333.57243
    min(region0) of nut = 7.8633422e-15

volFieldValue mindomain_vector write:
    min(region0) of U = (0.017533279 -8.7612125e-05 -2.6644945e-32)

volFieldValue maxdomain_scalar write:
    max(region0) of p = 0.029228157
    max(region0) of k = 0.00014911026
    max(region0) of omega = 1.1944345e+09
    max(region0) of nut = 1.9990176e-07

volFieldValue maxdomain_vector write:
    max(region0) of U = (1.0062663 0.011986744 2.3795599e-32)

Courant Number mean: 0.22259952 max: 3.4540472
deltaT = 0.0045898681
Time = 0.026948

PIMPLE: iteration 1
DILUPBiCGStab:  Solving for Ux, Initial residual = 0.0016078693, Final residual = 9.7107717e-10, No Iterations 2
DILUPBiCGStab:  Solving for Uy, Initial residual = 0.012600055, Final residual = 7.6728689e-09, No Iterations 2
DICPCG:  Solving for p, Initial residual = 0.0065885927, Final residual = 6.5000854e-05, No Iterations 76
DICPCG:  Solving for p, Initial residual = 7.0817439e-05, Final residual = 9.2170392e-07, No Iterations 31
time step continuity errors : sum local = 2.5930404e-12, global = 7.3303241e-14, cumulative = 1.4752981e-12
DICPCG:  Solving for p, Initial residual = 0.0049319315, Final residual = 4.5323787e-05, No Iterations 68
DICPCG:  Solving for p, Initial residual = 4.5579306e-05, Final residual = 9.395993e-07, No Iterations 25
time step continuity errors : sum local = 2.6596322e-12, global = 3.1469907e-13, cumulative = 1.7899971e-12
DILUPBiCGStab:  Solving for omega, Initial residual = 6.3932624e-07, Final residual = 2.2262467e-19, No Iterations 3
DILUPBiCGStab:  Solving for k, Initial residual = 0.085151179, Final residual = 5.5727594e-13, No Iterations 3
ExecutionTime = 1.3 s  ClockTime = 2 s

volFieldValue minmaxdomain_scalar write:

volFieldValue minmaxdomain_vector write:

volFieldValue mindomain_scalar write:
    min(region0) of p = -0.02258026
    min(region0) of k = 2.4354621e-08
    min(region0) of omega = 298.32097
    min(region0) of nut = 7.092417e-15

volFieldValue mindomain_vector write:
    min(region0) of U = (0.016647663 -9.7484177e-05 -2.8173896e-32)

volFieldValue maxdomain_scalar write:
    max(region0) of p = 0.028842873
    max(region0) of k = 0.00014902712
    max(region0) of omega = 1.1944345e+09
    max(region0) of nut = 1.9989331e-07

volFieldValue maxdomain_vector write:
    max(region0) of U = (1.0068537 0.012978201 2.5199104e-32)

Courant Number mean: 0.26753865 max: 4.190327
deltaT = 0.0054974692
Time = 0.0324454

PIMPLE: iteration 1
DILUPBiCGStab:  Solving for Ux, Initial residual = 0.0016747554, Final residual = 1.5444726e-09, No Iterations 2
DILUPBiCGStab:  Solving for Uy, Initial residual = 0.012392065, Final residual = 1.4841503e-09, No Iterations 3
DICPCG:  Solving for p, Initial residual = 0.0072578681, Final residual = 7.2377978e-05, No Iterations 77
DICPCG:  Solving for p, Initial residual = 7.8314622e-05, Final residual = 9.2030465e-07, No Iterations 32
time step continuity errors : sum local = 3.4614201e-12, global = 9.0244601e-14, cumulative = 1.8802417e-12
DICPCG:  Solving for p, Initial residual = 0.0046829589, Final residual = 4.3486817e-05, No Iterations 69
DICPCG:  Solving for p, Initial residual = 4.370656e-05, Final residual = 9.8671283e-07, No Iterations 31
time step continuity errors : sum local = 3.7328415e-12, global = 3.5723182e-13, cumulative = 2.2374736e-12
DILUPBiCGStab:  Solving for omega, Initial residual = 4.7401006e-07, Final residual = 4.052151e-19, No Iterations 3
DILUPBiCGStab:  Solving for k, Initial residual = 0.080402447, Final residual = 1.2646386e-12, No Iterations 3
ExecutionTime = 1.35 s  ClockTime = 2 s

volFieldValue minmaxdomain_scalar write:

volFieldValue minmaxdomain_vector write:

volFieldValue mindomain_scalar write:
    min(region0) of p = -0.025128044
    min(region0) of k = 2.0339384e-08
    min(region0) of omega = 264.56517
    min(region0) of nut = 6.4239006e-15

volFieldValue mindomain_vector write:
    min(region0) of U = (0.015828928 -0.00010354802 -2.9718409e-32)

volFieldValue maxdomain_scalar write:
    max(region0) of p = 0.028719224
    max(region0) of k = 0.00014893988
    max(region0) of omega = 1.1944345e+09
    max(region0) of nut = 1.9988452e-07

volFieldValue maxdomain_vector write:
    max(region0) of U = (1.0075637 0.013982436 2.6625527e-32)

Courant Number mean: 0.32044331 max: 5.0623705
deltaT = 0.0065820039
Time = 0.0390274

PIMPLE: iteration 1
DILUPBiCGStab:  Solving for Ux, Initial residual = 0.001738843, Final residual = 2.4014486e-09, No Iterations 2
DILUPBiCGStab:  Solving for Uy, Initial residual = 0.01225929, Final residual = 2.8822698e-09, No Iterations 3
DICPCG:  Solving for p, Initial residual = 0.0072347732, Final residual = 6.659077e-05, No Iterations 82
DICPCG:  Solving for p, Initial residual = 7.1904153e-05, Final residual = 9.0432707e-07, No Iterations 35
time step continuity errors : sum local = 4.5385396e-12, global = 2.1417601e-13, cumulative = 2.4516496e-12
DICPCG:  Solving for p, Initial residual = 0.0053873253, Final residual = 4.8395943e-05, No Iterations 69
DICPCG:  Solving for p, Initial residual = 4.8628816e-05, Final residual = 9.2855074e-07, No Iterations 32
time step continuity errors : sum local = 4.6872189e-12, global = 7.5465791e-13, cumulative = 3.2063075e-12
DILUPBiCGStab:  Solving for omega, Initial residual = 2.3968654e-07, Final residual = 7.810294e-19, No Iterations 3
DILUPBiCGStab:  Solving for k, Initial residual = 0.074603946, Final residual = 2.7080111e-12, No Iterations 3
ExecutionTime = 1.41 s  ClockTime = 2 s

volFieldValue minmaxdomain_scalar write:

volFieldValue minmaxdomain_vector write:

volFieldValue mindomain_scalar write:
    min(region0) of p = -0.027566697
    min(region0) of k = 1.7172685e-08
    min(region0) of omega = 232.79377
    min(region0) of nut = 5.8393732e-15

volFieldValue mindomain_vector write:
    min(region0) of U = (0.015069744 -0.00010982295 -3.1159862e-32)

volFieldValue maxdomain_scalar write:
    max(region0) of p = 0.028788798
    max(region0) of k = 0.00014884854
    max(region0) of omega = 1.1944345e+09
    max(region0) of nut = 1.998754e-07

volFieldValue maxdomain_vector write:
    max(region0) of U = (1.0082275 0.014992906 2.7969695e-32)

Courant Number mean: 0.38366198 max: 6.1095648
deltaT = 0.0076877806
Time = 0.0467152

PIMPLE: iteration 1
DILUPBiCGStab:  Solving for Ux, Initial residual = 0.0017781981, Final residual = 3.4914569e-09, No Iterations 2
DILUPBiCGStab:  Solving for Uy, Initial residual = 0.011928945, Final residual = 5.8621176e-09, No Iterations 3
DICPCG:  Solving for p, Initial residual = 0.0075685573, Final residual = 6.2038045e-05, No Iterations 83
DICPCG:  Solving for p, Initial residual = 6.5409689e-05, Final residual = 8.7303055e-07, No Iterations 34
time step continuity errors : sum local = 5.7169713e-12, global = 3.2192595e-13, cumulative = 3.5282334e-12
DICPCG:  Solving for p, Initial residual = 0.006376687, Final residual = 6.2706879e-05, No Iterations 69
DICPCG:  Solving for p, Initial residual = 6.2822533e-05, Final residual = 9.9580338e-07, No Iterations 75
time step continuity errors : sum local = 6.5661415e-12, global = 1.7321487e-13, cumulative = 3.7014483e-12
DILUPBiCGStab:  Solving for omega, Initial residual = 2.731921e-07, Final residual = 1.2367914e-18, No Iterations 3
DILUPBiCGStab:  Solving for k, Initial residual = 0.067632553, Final residual = 4.9918258e-12, No Iterations 3
ExecutionTime = 1.48 s  ClockTime = 2 s

volFieldValue minmaxdomain_scalar write:

volFieldValue minmaxdomain_vector write:

volFieldValue mindomain_scalar write:
    min(region0) of p = -0.029720137
    min(region0) of k = 1.4313892e-08
    min(region0) of omega = 204.02865
    min(region0) of nut = 5.3264626e-15

volFieldValue mindomain_vector write:
    min(region0) of U = (0.014363874 -0.00011316633 -3.2817407e-32)

volFieldValue maxdomain_scalar write:
    max(region0) of p = 0.029252634
    max(region0) of k = 0.00014875311
    max(region0) of omega = 1.1944345e+09
    max(region0) of nut = 1.9986595e-07

volFieldValue maxdomain_vector write:
    max(region0) of U = (1.0088127 0.016005665 2.9512105e-32)

Courant Number mean: 0.44811962 max: 7.193652
deltaT = 0.008745732
Time = 0.0554609

PIMPLE: iteration 1
DILUPBiCGStab:  Solving for Ux, Initial residual = 0.0017898327, Final residual = 4.7313103e-09, No Iterations 2
DILUPBiCGStab:  Solving for Uy, Initial residual = 0.011538687, Final residual = 6.5623429e-09, No Iterations 3
DICPCG:  Solving for p, Initial residual = 0.0081281009, Final residual = 7.1633502e-05, No Iterations 82
DICPCG:  Solving for p, Initial residual = 7.4043803e-05, Final residual = 8.3286885e-07, No Iterations 35
time step continuity errors : sum local = 6.8857768e-12, global = 3.7807309e-13, cumulative = 4.0795214e-12
DICPCG:  Solving for p, Initial residual = 0.0057648822, Final residual = 5.4679089e-05, No Iterations 71
DICPCG:  Solving for p, Initial residual = 5.4701523e-05, Final residual = 8.6659115e-07, No Iterations 72
time step continuity errors : sum local = 7.2070349e-12, global = -4.0075614e-14, cumulative = 4.0394458e-12
DILUPBiCGStab:  Solving for omega, Initial residual = 1.3074591e-07, Final residual = 1.7984967e-18, No Iterations 3
DILUPBiCGStab:  Solving for k, Initial residual = 0.060522417, Final residual = 7.9270388e-12, No Iterations 3
ExecutionTime = 1.54 s  ClockTime = 2 s

volFieldValue minmaxdomain_scalar write:

volFieldValue minmaxdomain_vector write:

volFieldValue mindomain_scalar write:
    min(region0) of p = -0.031638388
    min(region0) of k = 1.2042639e-08
    min(region0) of omega = 178.85455
    min(region0) of nut = 4.8739326e-15

volFieldValue mindomain_vector write:
    min(region0) of U = (0.013705964 -0.00011068414 -3.4499183e-32)

volFieldValue maxdomain_scalar write:
    max(region0) of p = 0.02995851
    max(region0) of k = 0.00014865364
    max(region0) of omega = 1.1944345e+09
    max(region0) of nut = 2.0048711e-07

volFieldValue maxdomain_vector write:
    max(region0) of U = (1.0092979 0.017023701 3.1076505e-32)

Courant Number mean: 0.50979037 max: 8.2472165
deltaT = 0.0098389485
Time = 0.0652999

PIMPLE: iteration 1
DILUPBiCGStab:  Solving for Ux, Initial residual = 0.0017880146, Final residual = 6.1684016e-09, No Iterations 2
DILUPBiCGStab:  Solving for Uy, Initial residual = 0.01124787, Final residual = 3.0490468e-09, No Iterations 3
DICPCG:  Solving for p, Initial residual = 0.0078143715, Final residual = 7.0246379e-05, No Iterations 82
DICPCG:  Solving for p, Initial residual = 7.2274659e-05, Final residual = 9.6996975e-07, No Iterations 34
time step continuity errors : sum local = 9.8923899e-12, global = 7.6564018e-13, cumulative = 4.805086e-12
DICPCG:  Solving for p, Initial residual = 0.0059769477, Final residual = 5.711394e-05, No Iterations 69
DICPCG:  Solving for p, Initial residual = 5.7130596e-05, Final residual = 8.9342866e-07, No Iterations 75
time step continuity errors : sum local = 9.1591141e-12, global = 1.0381638e-13, cumulative = 4.9089023e-12
DILUPBiCGStab:  Solving for omega, Initial residual = 1.4746663e-07, Final residual = 2.4770122e-18, No Iterations 3
DILUPBiCGStab:  Solving for k, Initial residual = 0.053922724, Final residual = 1.1574228e-11, No Iterations 3
ExecutionTime = 1.6 s  ClockTime = 2 s

volFieldValue minmaxdomain_scalar write:

volFieldValue minmaxdomain_vector write:

volFieldValue mindomain_scalar write:
    min(region0) of p = -0.033442108
    min(region0) of k = 1.018061e-08
    min(region0) of omega = 157.09515
    min(region0) of nut = 4.4732459e-15

volFieldValue mindomain_vector write:
    min(region0) of U = (0.013091385 -0.00010459999 -3.5966447e-32)

volFieldValue maxdomain_scalar write:
    max(region0) of p = 0.030680938
    max(region0) of k = 0.00014855017
    max(region0) of omega = 1.1944345e+09
    max(region0) of nut = 2.0167608e-07

volFieldValue maxdomain_vector write:
    max(region0) of U = (1.0096854 0.018034123 3.2449858e-32)

Courant Number mean: 0.57351761 max: 9.3452196
deltaT = 0.010050539
Time = 0.0753504

PIMPLE: iteration 1
DILUPBiCGStab:  Solving for Ux, Initial residual = 0.0017116449, Final residual = 6.7406497e-09, No Iterations 2
DILUPBiCGStab:  Solving for Uy, Initial residual = 0.010240073, Final residual = 1.9505019e-09, No Iterations 3
DICPCG:  Solving for p, Initial residual = 0.0075820489, Final residual = 6.4645225e-05, No Iterations 87
DICPCG:  Solving for p, Initial residual = 6.1957315e-05, Final residual = 8.7402353e-07, No Iterations 28
time step continuity errors : sum local = 9.9396698e-12, global = -6.3397144e-13, cumulative = 4.2749309e-12
DICPCG:  Solving for p, Initial residual = 0.0061935582, Final residual = 6.1509604e-05, No Iterations 75
DICPCG:  Solving for p, Initial residual = 6.1151505e-05, Final residual = 6.6289814e-07, No Iterations 76
time step continuity errors : sum local = 7.5737439e-12, global = 2.9539832e-14, cumulative = 4.3044707e-12
DILUPBiCGStab:  Solving for omega, Initial residual = 8.7530088e-08, Final residual = 2.2886401e-18, No Iterations 3
DILUPBiCGStab:  Solving for k, Initial residual = 0.047043936, Final residual = 1.1851624e-11, No Iterations 3
ExecutionTime = 1.66 s  ClockTime = 2 s

volFieldValue minmaxdomain_scalar write:

volFieldValue minmaxdomain_vector write:

volFieldValue mindomain_scalar write:
    min(region0) of p = -0.034669226
    min(region0) of k = 8.6524381e-09
    min(region0) of omega = 139.86528
    min(region0) of nut = 4.1033847e-15

volFieldValue mindomain_vector write:
    min(region0) of U = (0.012516131 -0.00010139753 -3.8583469e-32)

volFieldValue maxdomain_scalar write:
    max(region0) of p = 0.032025171
    max(region0) of k = 0.00014844276
    max(region0) of omega = 1.1944345e+09
    max(region0) of nut = 2.0255892e-07

volFieldValue maxdomain_vector write:
    max(region0) of U = (1.0099912 0.019023542 3.4830199e-32)

Courant Number mean: 0.58585495 max: 9.6105313
deltaT = 0.010050539
Time = 0.085401

PIMPLE: iteration 1
DILUPBiCGStab:  Solving for Ux, Initial residual = 0.001615612, Final residual = 6.9203009e-09, No Iterations 2
DILUPBiCGStab:  Solving for Uy, Initial residual = 0.009810143, Final residual = 1.4660621e-09, No Iterations 3
DICPCG:  Solving for p, Initial residual = 0.0075382324, Final residual = 6.4188392e-05, No Iterations 87
DICPCG:  Solving for p, Initial residual = 6.1410364e-05, Final residual = 9.7723467e-07, No Iterations 27
time step continuity errors : sum local = 1.1711186e-11, global = -7.6012773e-13, cumulative = 3.544343e-12
DICPCG:  Solving for p, Initial residual = 0.0058764729, Final residual = 5.1754995e-05, No Iterations 76
DICPCG:  Solving for p, Initial residual = 5.1445135e-05, Final residual = 8.6151276e-07, No Iterations 75
time step continuity errors : sum local = 1.0371998e-11, global = 2.2125657e-13, cumulative = 3.7655996e-12
DILUPBiCGStab:  Solving for omega, Initial residual = 1.185942e-07, Final residual = 1.7568923e-18, No Iterations 3
DILUPBiCGStab:  Solving for k, Initial residual = 0.041324802, Final residual = 1.0707316e-11, No Iterations 3
ExecutionTime = 1.73 s  ClockTime = 2 s

volFieldValue minmaxdomain_scalar write:

volFieldValue minmaxdomain_vector write:

volFieldValue mindomain_scalar write:
    min(region0) of p = -0.035826208
    min(region0) of k = 7.2576309e-09
    min(region0) of omega = 126.20215
    min(region0) of nut = 3.769513e-15

volFieldValue mindomain_vector write:
    min(region0) of U = (0.011976686 -9.5150409e-05 -4.0505554e-32)

volFieldValue maxdomain_scalar write:
    max(region0) of p = 0.033440782
    max(region0) of k = 0.00014833148
    max(region0) of omega = 1.1944345e+09
    max(region0) of nut = 2.0310703e-07

volFieldValue maxdomain_vector write:
    max(region0) of U = (1.0102404 0.019995812 3.6567212e-32)

Courant Number mean: 0.58585869 max: 9.670988
deltaT = 0.010050539
Time = 0.0954515

PIMPLE: iteration 1
DILUPBiCGStab:  Solving for Ux, Initial residual = 0.0015249446, Final residual = 7.0369615e-09, No Iterations 2
DILUPBiCGStab:  Solving for Uy, Initial residual = 0.0095233685, Final residual = 8.4555098e-09, No Iterations 3
DICPCG:  Solving for p, Initial residual = 0.0074642991, Final residual = 7.2564468e-05, No Iterations 86
DICPCG:  Solving for p, Initial residual = 6.9941184e-05, Final residual = 9.8816735e-07, No Iterations 29
time step continuity errors : sum local = 1.2345844e-11, global = -7.8725677e-13, cumulative = 2.9783428e-12
DICPCG:  Solving for p, Initial residual = 0.0051605058, Final residual = 4.895876e-05, No Iterations 76
DICPCG:  Solving for p, Initial residual = 4.8728234e-05, Final residual = 9.1004845e-07, No Iterations 75
time step continuity errors : sum local = 1.1407193e-11, global = 2.0379164e-13, cumulative = 3.1821344e-12
DILUPBiCGStab:  Solving for omega, Initial residual = 9.5946041e-08, Final residual = 1.4642616e-18, No Iterations 3
DILUPBiCGStab:  Solving for k, Initial residual = 0.036681101, Final residual = 9.5876609e-12, No Iterations 3
ExecutionTime = 1.79 s  ClockTime = 2 s

volFieldValue minmaxdomain_scalar write:

volFieldValue minmaxdomain_vector write:

volFieldValue mindomain_scalar write:
    min(region0) of p = -0.036985709
    min(region0) of k = 6.1395222e-09
    min(region0) of omega = 115.10123
    min(region0) of nut = 3.4707787e-15

volFieldValue mindomain_vector write:
    min(region0) of U = (0.011469963 -8.7057101e-05 -4.2052774e-32)

volFieldValue maxdomain_scalar write:
    max(region0) of p = 0.034824858
    max(region0) of k = 0.00014821643
    max(region0) of omega = 1.1944345e+09
    max(region0) of nut = 2.0339216e-07

volFieldValue maxdomain_vector write:
    max(region0) of U = (1.0104458 0.020951621 3.7963835e-32)

Courant Number mean: 0.58586252 max: 9.7278508
deltaT = 0.010050539
Time = 0.105502

PIMPLE: iteration 1
DILUPBiCGStab:  Solving for Ux, Initial residual = 0.0014413292, Final residual = 7.123042e-09, No Iterations 2
DILUPBiCGStab:  Solving for Uy, Initial residual = 0.0092378555, Final residual = 7.3034903e-09, No Iterations 3
DICPCG:  Solving for p, Initial residual = 0.006542259, Final residual = 5.7267763e-05, No Iterations 87
DICPCG:  Solving for p, Initial residual = 5.5433064e-05, Final residual = 9.2237501e-07, No Iterations 27
time step continuity errors : sum local = 1.1950325e-11, global = -8.6096046e-13, cumulative = 2.321174e-12
DICPCG:  Solving for p, Initial residual = 0.0051738951, Final residual = 5.1312026e-05, No Iterations 34
DICPCG:  Solving for p, Initial residual = 5.1178914e-05, Final residual = 8.1972081e-07, No Iterations 76
time step continuity errors : sum local = 1.0636825e-11, global = -6.5770084e-14, cumulative = 2.2554039e-12
DILUPBiCGStab:  Solving for omega, Initial residual = 8.3503066e-08, Final residual = 1.2236121e-18, No Iterations 3
DILUPBiCGStab:  Solving for k, Initial residual = 0.032806367, Final residual = 8.5809113e-12, No Iterations 3
ExecutionTime = 1.85 s  ClockTime = 2 s

volFieldValue minmaxdomain_scalar write:

volFieldValue minmaxdomain_vector write:

volFieldValue mindomain_scalar write:
    min(region0) of p = -0.038103485
    min(region0) of k = 5.2361766e-09
    min(region0) of omega = 105.88809
    min(region0) of nut = 3.2027626e-15

volFieldValue mindomain_vector write:
    min(region0) of U = (0.01099242 -7.7940093e-05 -4.3475898e-32)

volFieldValue maxdomain_scalar write:
    max(region0) of p = 0.036192818
    max(region0) of k = 0.00014809772
    max(region0) of omega = 1.1944345e+09
    max(region0) of nut = 2.0348711e-07

volFieldValue maxdomain_vector write:
    max(region0) of U = (1.010615 0.021889694 3.9248476e-32)

Courant Number mean: 0.58586645 max: 9.7813788
deltaT = 0.010050539
Time = 0.115553

PIMPLE: iteration 1
DILUPBiCGStab:  Solving for Ux, Initial residual = 0.0013640658, Final residual = 7.1787029e-09, No Iterations 2
DILUPBiCGStab:  Solving for Uy, Initial residual = 0.0089812015, Final residual = 6.5788491e-09, No Iterations 3
DICPCG:  Solving for p, Initial residual = 0.0064420954, Final residual = 5.4856572e-05, No Iterations 87
DICPCG:  Solving for p, Initial residual = 5.3253156e-05, Final residual = 8.897878e-07, No Iterations 27
time step continuity errors : sum local = 1.1922642e-11, global = -8.792583e-13, cumulative = 1.3761456e-12
DICPCG:  Solving for p, Initial residual = 0.0051898259, Final residual = 4.9418467e-05, No Iterations 32
DICPCG:  Solving for p, Initial residual = 4.9289793e-05, Final residual = 9.0431309e-07, No Iterations 72
time step continuity errors : sum local = 1.2139633e-11, global = 1.8470975e-13, cumulative = 1.5608554e-12
DILUPBiCGStab:  Solving for omega, Initial residual = 6.977987e-08, Final residual = 1.0799899e-18, No Iterations 3
DILUPBiCGStab:  Solving for k, Initial residual = 0.02906234, Final residual = 7.5852456e-12, No Iterations 3
ExecutionTime = 1.9 s  ClockTime = 2 s

volFieldValue minmaxdomain_scalar write:

volFieldValue minmaxdomain_vector write:

volFieldValue mindomain_scalar write:
    min(region0) of p = -0.039166865
    min(region0) of k = 4.4391797e-09
    min(region0) of omega = 98.104503
    min(region0) of nut = 2.9616886e-15

volFieldValue mindomain_vector write:
    min(region0) of U = (0.010541054 -7.1871964e-05 -4.4809189e-32)

volFieldValue maxdomain_scalar write:
    max(region0) of p = 0.037553035
    max(region0) of k = 0.00014797545
    max(region0) of omega = 1.1944345e+09
    max(region0) of nut = 2.0344818e-07

volFieldValue maxdomain_vector write:
    max(region0) of U = (1.0107537 0.022809371 4.0452027e-32)

Courant Number mean: 0.58587046 max: 9.8318081
deltaT = 0.010050539
Time = 0.125603

PIMPLE: iteration 1
DILUPBiCGStab:  Solving for Ux, Initial residual = 0.0012925484, Final residual = 7.2037905e-09, No Iterations 2
DILUPBiCGStab:  Solving for Uy, Initial residual = 0.0087297703, Final residual = 5.9827241e-09, No Iterations 3
DICPCG:  Solving for p, Initial residual = 0.0059440051, Final residual = 5.356303e-05, No Iterations 87
DICPCG:  Solving for p, Initial residual = 5.2117192e-05, Final residual = 8.7171344e-07, No Iterations 27
time step continuity errors : sum local = 1.2053576e-11, global = -9.1404359e-13, cumulative = 6.4681176e-13
DICPCG:  Solving for p, Initial residual = 0.0053531884, Final residual = 5.2578751e-05, No Iterations 30
DICPCG:  Solving for p, Initial residual = 5.2441245e-05, Final residual = 9.3025464e-07, No Iterations 75
time step continuity errors : sum local = 1.2890855e-11, global = -2.2883483e-13, cumulative = 4.1797693e-13
DILUPBiCGStab:  Solving for omega, Initial residual = 7.5851068e-08, Final residual = 1.0243818e-18, No Iterations 3
DILUPBiCGStab:  Solving for k, Initial residual = 0.025779216, Final residual = 6.7408561e-12, No Iterations 3
ExecutionTime = 1.96 s  ClockTime = 2 s

volFieldValue minmaxdomain_scalar write:

volFieldValue minmaxdomain_vector write:

volFieldValue mindomain_scalar write:
    min(region0) of p = -0.040171863
    min(region0) of k = 3.7558977e-09
    min(region0) of omega = 91.431213
    min(region0) of nut = 2.7134274e-15

volFieldValue mindomain_vector write:
    min(region0) of U = (0.010114867 -6.5091363e-05 -4.6062422e-32)

volFieldValue maxdomain_scalar write:
    max(region0) of p = 0.03891522
    max(region0) of k = 0.00014784977
    max(region0) of omega = 1.1944345e+09
    max(region0) of nut = 2.0331535e-07

volFieldValue maxdomain_vector write:
    max(region0) of U = (1.0108648 0.023710464 4.1583292e-32)

Courant Number mean: 0.58587456 max: 9.8849431
deltaT = 0.010050539
Time = 0.135654

PIMPLE: iteration 1
DILUPBiCGStab:  Solving for Ux, Initial residual = 0.0012262196, Final residual = 7.2004055e-09, No Iterations 2
DILUPBiCGStab:  Solving for Uy, Initial residual = 0.0084886311, Final residual = 5.4391043e-09, No Iterations 3
DICPCG:  Solving for p, Initial residual = 0.0058329152, Final residual = 5.1735334e-05, No Iterations 87
DICPCG:  Solving for p, Initial residual = 5.0433969e-05, Final residual = 9.8780286e-07, No Iterations 26
time step continuity errors : sum local = 1.4073313e-11, global = -1.0657057e-12, cumulative = -6.4772873e-13
DICPCG:  Solving for p, Initial residual = 0.0044757759, Final residual = 4.2942756e-05, No Iterations 32
DICPCG:  Solving for p, Initial residual = 4.2839758e-05, Final residual = 9.4054433e-07, No Iterations 65
time step continuity errors : sum local = 1.3425088e-11, global = 1.6585647e-13, cumulative = -4.8187226e-13
DILUPBiCGStab:  Solving for omega, Initial residual = 6.8272847e-08, Final residual = 9.5743236e-19, No Iterations 3
DILUPBiCGStab:  Solving for k, Initial residual = 0.022975548, Final residual = 6.0245254e-12, No Iterations 3
ExecutionTime = 2.01 s  ClockTime = 2 s

volFieldValue minmaxdomain_scalar write:

volFieldValue minmaxdomain_vector write:

volFieldValue mindomain_scalar write:
    min(region0) of p = -0.041112345
    min(region0) of k = 3.2049998e-09
    min(region0) of omega = 85.639375
    min(region0) of nut = 2.4864989e-15

volFieldValue mindomain_vector write:
    min(region0) of U = (0.0097119392 -5.7490532e-05 -4.7241764e-32)

volFieldValue maxdomain_scalar write:
    max(region0) of p = 0.04029871
    max(region0) of k = 0.0001477208
    max(region0) of omega = 1.1944345e+09
    max(region0) of nut = 2.0311633e-07

volFieldValue maxdomain_vector write:
    max(region0) of U = (1.0109484 0.024594881 4.2647832e-32)

Courant Number mean: 0.58587874 max: 9.9352285
deltaT = 0.010050539
Time = 0.145704

PIMPLE: iteration 1
DILUPBiCGStab:  Solving for Ux, Initial residual = 0.0011645982, Final residual = 7.172069e-09, No Iterations 2
DILUPBiCGStab:  Solving for Uy, Initial residual = 0.0082517236, Final residual = 4.9828602e-09, No Iterations 3
DICPCG:  Solving for p, Initial residual = 0.0056853989, Final residual = 4.991832e-05, No Iterations 87
DICPCG:  Solving for p, Initial residual = 4.8749448e-05, Final residual = 9.4063984e-07, No Iterations 26
time step continuity errors : sum local = 1.3778371e-11, global = -1.0621759e-12, cumulative = -1.5440482e-12
DICPCG:  Solving for p, Initial residual = 0.0041899564, Final residual = 4.0351319e-05, No Iterations 32
DICPCG:  Solving for p, Initial residual = 4.0268759e-05, Final residual = 8.7218604e-07, No Iterations 65
time step continuity errors : sum local = 1.2792522e-11, global = -1.6088709e-13, cumulative = -1.7049353e-12
DILUPBiCGStab:  Solving for omega, Initial residual = 5.7027478e-08, Final residual = 8.9316082e-19, No Iterations 3
DILUPBiCGStab:  Solving for k, Initial residual = 0.020579383, Final residual = 5.3975208e-12, No Iterations 3
ExecutionTime = 2.07 s  ClockTime = 2 s

volFieldValue minmaxdomain_scalar write:

volFieldValue minmaxdomain_vector write:

volFieldValue mindomain_scalar write:
    min(region0) of p = -0.041992781
    min(region0) of k = 2.7469612e-09
    min(region0) of omega = 80.560438
    min(region0) of nut = 2.2812149e-15

volFieldValue mindomain_vector write:
    min(region0) of U = (0.0093305488 -5.116243e-05 -4.8353444e-32)

volFieldValue maxdomain_scalar write:
    max(region0) of p = 0.041694566
    max(region0) of k = 0.00014758869
    max(region0) of omega = 1.1944345e+09
    max(region0) of nut = 2.0287036e-07

volFieldValue maxdomain_vector write:
    max(region0) of U = (1.0110038 0.025467166 4.3651265e-32)

Courant Number mean: 0.585883 max: 9.9827203
deltaT = 0.010050539
Time = 0.155755

PIMPLE: iteration 1
DILUPBiCGStab:  Solving for Ux, Initial residual = 0.0011072441, Final residual = 7.1238e-09, No Iterations 2
DILUPBiCGStab:  Solving for Uy, Initial residual = 0.0080290363, Final residual = 4.5679422e-09, No Iterations 3
DICPCG:  Solving for p, Initial residual = 0.0052179009, Final residual = 4.8273223e-05, No Iterations 87
DICPCG:  Solving for p, Initial residual = 4.7228635e-05, Final residual = 9.6830843e-07, No Iterations 25
time step continuity errors : sum local = 1.4545096e-11, global = -1.1358112e-12, cumulative = -2.8407465e-12
DICPCG:  Solving for p, Initial residual = 0.004628733, Final residual = 4.4337002e-05, No Iterations 30
DICPCG:  Solving for p, Initial residual = 4.4248516e-05, Final residual = 9.6718524e-07, No Iterations 74
time step continuity errors : sum local = 1.4549447e-11, global = -3.3354505e-13, cumulative = -3.1742916e-12
DILUPBiCGStab:  Solving for omega, Initial residual = 5.3310604e-08, Final residual = 8.0042231e-19, No Iterations 3
DILUPBiCGStab:  Solving for k, Initial residual = 0.018533109, Final residual = 4.83297e-12, No Iterations 3
ExecutionTime = 2.12 s  ClockTime = 2 s

volFieldValue minmaxdomain_scalar write:

volFieldValue minmaxdomain_vector write:

volFieldValue mindomain_scalar write:
    min(region0) of p = -0.042821187
    min(region0) of k = 2.327913e-09
    min(region0) of omega = 76.067217
    min(region0) of nut = 2.0956771e-15

volFieldValue mindomain_vector write:
    min(region0) of U = (0.0089691458 -4.5282555e-05 -4.9401471e-32)

volFieldValue maxdomain_scalar write:
    max(region0) of p = 0.043076014
    max(region0) of k = 0.00014745361
    max(region0) of omega = 1.1944345e+09
    max(region0) of nut = 2.0259099e-07

volFieldValue maxdomain_vector write:
    max(region0) of U = (1.0110314 0.026321637 4.4597212e-32)

Courant Number mean: 0.58588732 max: 10.027598
deltaT = 0.010050539
Time = 0.165805

PIMPLE: iteration 1
DILUPBiCGStab:  Solving for Ux, Initial residual = 0.0010537778, Final residual = 7.0573257e-09, No Iterations 2
DILUPBiCGStab:  Solving for Uy, Initial residual = 0.0078160608, Final residual = 4.221788e-09, No Iterations 3
DICPCG:  Solving for p, Initial residual = 0.0049850992, Final residual = 4.6769338e-05, No Iterations 87
DICPCG:  Solving for p, Initial residual = 4.582779e-05, Final residual = 9.2751882e-07, No Iterations 25
time step continuity errors : sum local = 1.426572e-11, global = -1.137493e-12, cumulative = -4.3117846e-12
DICPCG:  Solving for p, Initial residual = 0.0046283426, Final residual = 4.4537923e-05, No Iterations 29
DICPCG:  Solving for p, Initial residual = 4.4452274e-05, Final residual = 7.7654524e-07, No Iterations 75
time step continuity errors : sum local = 1.1961433e-11, global = -5.9912075e-14, cumulative = -4.3716967e-12
DILUPBiCGStab:  Solving for omega, Initial residual = 5.3458762e-08, Final residual = 6.9523684e-19, No Iterations 3
DILUPBiCGStab:  Solving for k, Initial residual = 0.016829156, Final residual = 4.3264012e-12, No Iterations 3
ExecutionTime = 2.18 s  ClockTime = 2 s

volFieldValue minmaxdomain_scalar write:

volFieldValue minmaxdomain_vector write:

volFieldValue mindomain_scalar write:
    min(region0) of p = -0.043600151
    min(region0) of k = 1.9905864e-09
    min(region0) of omega = 72.061709
    min(region0) of nut = 1.9285319e-15

volFieldValue mindomain_vector write:
    min(region0) of U = (0.0086263309 -3.8580881e-05 -5.0387548e-32)

volFieldValue maxdomain_scalar write:
    max(region0) of p = 0.044437854
    max(region0) of k = 0.00014731571
    max(region0) of omega = 1.1944345e+09
    max(region0) of nut = 2.0228792e-07

volFieldValue maxdomain_vector write:
    max(region0) of U = (1.0110335 0.027158616 4.548723e-32)

Courant Number mean: 0.58589172 max: 10.070025
deltaT = 0.0099308895
Time = 0.175736

PIMPLE: iteration 1
DILUPBiCGStab:  Solving for Ux, Initial residual = 0.00099805595, Final residual = 6.8134508e-09, No Iterations 2
DILUPBiCGStab:  Solving for Uy, Initial residual = 0.0075437418, Final residual = 3.7347811e-09, No Iterations 3
DICPCG:  Solving for p, Initial residual = 0.0050796411, Final residual = 4.4387632e-05, No Iterations 87
DICPCG:  Solving for p, Initial residual = 4.3245336e-05, Final residual = 9.4809814e-07, No Iterations 24
time step continuity errors : sum local = 1.471011e-11, global = -9.6136244e-13, cumulative = -5.3330591e-12
DICPCG:  Solving for p, Initial residual = 0.0048268897, Final residual = 4.7231155e-05, No Iterations 31
DICPCG:  Solving for p, Initial residual = 4.7138546e-05, Final residual = 9.1578253e-07, No Iterations 73
time step continuity errors : sum local = 1.422149e-11, global = 1.4043886e-13, cumulative = -5.1926203e-12
DILUPBiCGStab:  Solving for omega, Initial residual = 4.6894046e-08, Final residual = 5.7988581e-19, No Iterations 3
DILUPBiCGStab:  Solving for k, Initial residual = 0.015307201, Final residual = 3.7077422e-12, No Iterations 3
ExecutionTime = 2.23 s  ClockTime = 3 s

volFieldValue minmaxdomain_scalar write:

volFieldValue minmaxdomain_vector write:

volFieldValue mindomain_scalar write:
    min(region0) of p = -0.044259685
    min(region0) of k = 1.7170876e-09
    min(region0) of omega = 68.507614
    min(region0) of nut = 1.778229e-15

volFieldValue mindomain_vector write:
    min(region0) of U = (0.0083008415 -3.2032371e-05 -5.1418218e-32)

volFieldValue maxdomain_scalar write:
    max(region0) of p = 0.045879075
    max(region0) of k = 0.00014717515
    max(region0) of omega = 1.1944345e+09
    max(region0) of nut = 2.0196769e-07

volFieldValue maxdomain_vector write:
    max(region0) of U = (1.0110116 0.027976725 4.6411252e-32)

Courant Number mean: 0.5789212 max: 9.9897906
deltaT = 0.0099308895
Time = 0.185667

PIMPLE: iteration 1
DILUPBiCGStab:  Solving for Ux, Initial residual = 0.00095090698, Final residual = 6.6976499e-09, No Iterations 2
DILUPBiCGStab:  Solving for Uy, Initial residual = 0.0074017863, Final residual = 3.3921327e-09, No Iterations 3
DICPCG:  Solving for p, Initial residual = 0.0048355472, Final residual = 4.3022207e-05, No Iterations 87
DICPCG:  Solving for p, Initial residual = 4.2295382e-05, Final residual = 9.6731169e-07, No Iterations 24
time step continuity errors : sum local = 1.527697e-11, global = -1.173604e-12, cumulative = -6.3662243e-12
DICPCG:  Solving for p, Initial residual = 0.0046624233, Final residual = 4.3838826e-05, No Iterations 28
DICPCG:  Solving for p, Initial residual = 4.3757197e-05, Final residual = 7.7081457e-07, No Iterations 75
time step continuity errors : sum local = 1.2194306e-11, global = -6.717668e-14, cumulative = -6.433401e-12
DILUPBiCGStab:  Solving for omega, Initial residual = 4.0086895e-08, Final residual = 5.0421641e-19, No Iterations 3
DILUPBiCGStab:  Solving for k, Initial residual = 0.014025625, Final residual = 3.2931518e-12, No Iterations 3
ExecutionTime = 2.29 s  ClockTime = 3 s

volFieldValue minmaxdomain_scalar write:

volFieldValue minmaxdomain_vector write:

volFieldValue mindomain_scalar write:
    min(region0) of p = -0.044946601
    min(region0) of k = 1.4709862e-09
    min(region0) of omega = 65.296035
    min(region0) of nut = 1.6430107e-15

volFieldValue mindomain_vector write:
    min(region0) of U = (0.0079915277 -2.4800729e-05 -5.2167098e-32)

volFieldValue maxdomain_scalar write:
    max(region0) of p = 0.047210368
    max(region0) of k = 0.00014703209
    max(region0) of omega = 1.1944345e+09
    max(region0) of nut = 2.0163531e-07

volFieldValue maxdomain_vector write:
    max(region0) of U = (1.0109644 0.028777332 4.7085535e-32)

Courant Number mean: 0.57892564 max: 10.027303
deltaT = 0.0099308895
Time = 0.195598

PIMPLE: iteration 1
DILUPBiCGStab:  Solving for Ux, Initial residual = 0.00090746962, Final residual = 6.5915105e-09, No Iterations 2
DILUPBiCGStab:  Solving for Uy, Initial residual = 0.0072132923, Final residual = 3.1264972e-09, No Iterations 3
DICPCG:  Solving for p, Initial residual = 0.0046512839, Final residual = 4.1508846e-05, No Iterations 87
DICPCG:  Solving for p, Initial residual = 4.0844576e-05, Final residual = 9.2669421e-07, No Iterations 24
time step continuity errors : sum local = 1.4922555e-11, global = -1.1409179e-12, cumulative = -7.5743188e-12
DICPCG:  Solving for p, Initial residual = 0.0037844761, Final residual = 3.6566162e-05, No Iterations 30
DICPCG:  Solving for p, Initial residual = 3.650027e-05, Final residual = 9.6097412e-07, No Iterations 73
time step continuity errors : sum local = 1.5500326e-11, global = -3.5925633e-13, cumulative = -7.9335752e-12
DILUPBiCGStab:  Solving for omega, Initial residual = 3.8707966e-08, Final residual = 4.4791514e-19, No Iterations 3
DILUPBiCGStab:  Solving for k, Initial residual = 0.012872074, Final residual = 2.9427324e-12, No Iterations 3
ExecutionTime = 2.34 s  ClockTime = 3 s

volFieldValue minmaxdomain_scalar write:

volFieldValue minmaxdomain_vector write:

volFieldValue mindomain_scalar write:
    min(region0) of p = -0.045580656
    min(region0) of k = 1.2636072e-09
    min(region0) of omega = 62.378505
    min(region0) of nut = 1.5208725e-15

volFieldValue mindomain_vector write:
    min(region0) of U = (0.0076973463 -1.9160089e-05 -5.2964264e-32)

volFieldValue maxdomain_scalar write:
    max(region0) of p = 0.048488359
    max(region0) of k = 0.00014688672
    max(region0) of omega = 1.1944345e+09
    max(region0) of nut = 2.012956e-07

volFieldValue maxdomain_vector write:
    max(region0) of U = (1.0108942 0.029559208 4.7804886e-32)

Courant Number mean: 0.57893014 max: 10.062807
deltaT = 0.0098097811
Time = 0.205408

PIMPLE: iteration 1
DILUPBiCGStab:  Solving for Ux, Initial residual = 0.00086145632, Final residual = 6.3176345e-09, No Iterations 2
DILUPBiCGStab:  Solving for Uy, Initial residual = 0.0069638212, Final residual = 2.781684e-09, No Iterations 3
DICPCG:  Solving for p, Initial residual = 0.0043538972, Final residual = 4.0236816e-05, No Iterations 87
DICPCG:  Solving for p, Initial residual = 3.9367647e-05, Final residual = 9.6663417e-07, No Iterations 23
time step continuity errors : sum local = 1.5625655e-11, global = -1.0606464e-12, cumulative = -8.9942216e-12
DICPCG:  Solving for p, Initial residual = 0.0033706033, Final residual = 3.3491242e-05, No Iterations 36
DICPCG:  Solving for p, Initial residual = 3.3441506e-05, Final residual = 8.6976183e-07, No Iterations 73
time step continuity errors : sum local = 1.4065335e-11, global = -1.738849e-13, cumulative = -9.1681065e-12
DILUPBiCGStab:  Solving for omega, Initial residual = 3.6766497e-08, Final residual = 3.8935788e-19, No Iterations 3
DILUPBiCGStab:  Solving for k, Initial residual = 0.011809628, Final residual = 2.5159984e-12, No Iterations 3
ExecutionTime = 2.4 s  ClockTime = 3 s

volFieldValue minmaxdomain_scalar write:

volFieldValue minmaxdomain_vector write:

volFieldValue mindomain_scalar write:
    min(region0) of p = -0.046091758
    min(region0) of k = 1.0952704e-09
    min(region0) of omega = 59.746544
    min(region0) of nut = 1.4100615e-15

volFieldValue mindomain_vector write:
    min(region0) of U = (0.0074173457 -1.3552921e-05 -5.3800067e-32)

volFieldValue maxdomain_scalar write:
    max(region0) of p = 0.049828563
    max(region0) of k = 0.00014673917
    max(region0) of omega = 1.1944345e+09
    max(region0) of nut = 2.009526e-07

volFieldValue maxdomain_vector write:
    max(region0) of U = (1.0108029 0.030321339 4.8552456e-32)

Courant Number mean: 0.57187449 max: 9.9732959
deltaT = 0.0098097811
Time = 0.215218

PIMPLE: iteration 1
[...]
ExecutionTime = 49.62 s  ClockTime = 50 s

volFieldValue minmaxdomain_scalar write:

volFieldValue minmaxdomain_vector write:

volFieldValue mindomain_scalar write:
    min(region0) of p = -0.030201351
    min(region0) of k = 6.5468934e-12
    min(region0) of omega = 5.0498835
    min(region0) of nut = 3.1128407e-19

volFieldValue mindomain_vector write:
    min(region0) of U = (0.00011044734 -0.00081792645 -7.8052364e-32)

volFieldValue maxdomain_scalar write:
    max(region0) of p = 0.093556197
    max(region0) of k = 0.0043260627
    max(region0) of omega = 1.1944345e+09
    max(region0) of nut = 3.7631876e-05

volFieldValue maxdomain_vector write:
    max(region0) of U = (1.0117702 0.0558639 6.9341506e-32)

fieldAverage fieldAverage write:
    Calculating averages

Courant Number mean: 0.54597497 max: 10.015467
deltaT = 0.0093457944
Time = 9.92523

PIMPLE: iteration 1
DILUPBiCGStab:  Solving for Ux, Initial residual = 2.0872892e-07, Final residual = 1.2288368e-11, No Iterations 1
DILUPBiCGStab:  Solving for Uy, Initial residual = 2.3111305e-05, Final residual = 2.4890818e-10, No Iterations 1
DICPCG:  Solving for p, Initial residual = 0.0010419089, Final residual = 9.1518111e-06, No Iterations 8
DICPCG:  Solving for p, Initial residual = 9.1507078e-06, Final residual = 9.7051803e-07, No Iterations 63
time step continuity errors : sum local = 2.0294147e-11, global = 2.5149744e-13, cumulative = -3.8593914e-10
DICPCG:  Solving for p, Initial residual = 0.00074480049, Final residual = 7.2633849e-06, No Iterations 5
DICPCG:  Solving for p, Initial residual = 7.2639395e-06, Final residual = 7.506447e-07, No Iterations 62
time step continuity errors : sum local = 1.5692571e-11, global = 6.6971061e-14, cumulative = -3.8587217e-10
DILUPBiCGStab:  Solving for omega, Initial residual = 1.5921464e-09, Final residual = 1.0840365e-21, No Iterations 3
DILUPBiCGStab:  Solving for k, Initial residual = 1.0603535e-06, Final residual = 2.9814618e-15, No Iterations 3
ExecutionTime = 49.67 s  ClockTime = 50 s

volFieldValue minmaxdomain_scalar write:

volFieldValue minmaxdomain_vector write:

volFieldValue mindomain_scalar write:
    min(region0) of p = -0.030202479
    min(region0) of k = 6.5456238e-12
    min(region0) of omega = 5.0498836
    min(region0) of nut = 3.1127643e-19

volFieldValue mindomain_vector write:
    min(region0) of U = (0.000110446 -0.00081802366 -7.8042246e-32)

volFieldValue maxdomain_scalar write:
    max(region0) of p = 0.093552642
    max(region0) of k = 0.0043260815
    max(region0) of omega = 1.1944345e+09
    max(region0) of nut = 3.7631975e-05

volFieldValue maxdomain_vector write:
    max(region0) of U = (1.0117702 0.055863589 6.933252e-32)

fieldAverage fieldAverage write:
    Calculating averages

Courant Number mean: 0.54597497 max: 10.015344
deltaT = 0.0093457944
Time = 9.93458

PIMPLE: iteration 1
DILUPBiCGStab:  Solving for Ux, Initial residual = 2.0963731e-07, Final residual = 1.2328432e-11, No Iterations 1
DILUPBiCGStab:  Solving for Uy, Initial residual = 2.352533e-05, Final residual = 2.4855521e-10, No Iterations 1
DICPCG:  Solving for p, Initial residual = 0.0010315097, Final residual = 8.7701866e-06, No Iterations 10
DICPCG:  Solving for p, Initial residual = 8.7698961e-06, Final residual = 9.192231e-07, No Iterations 17
time step continuity errors : sum local = 1.9215577e-11, global = 8.4589419e-13, cumulative = -3.8502628e-10
DICPCG:  Solving for p, Initial residual = 0.00066874013, Final residual = 5.3011221e-06, No Iterations 7
DICPCG:  Solving for p, Initial residual = 5.3015834e-06, Final residual = 9.7995618e-07, No Iterations 21
time step continuity errors : sum local = 2.0480648e-11, global = 4.6537508e-12, cumulative = -3.8037252e-10
DILUPBiCGStab:  Solving for omega, Initial residual = 1.5903639e-09, Final residual = 1.08281e-21, No Iterations 3
DILUPBiCGStab:  Solving for k, Initial residual = 1.0594835e-06, Final residual = 2.9868418e-15, No Iterations 3
ExecutionTime = 49.7 s  ClockTime = 50 s

volFieldValue minmaxdomain_scalar write:

volFieldValue minmaxdomain_vector write:

volFieldValue mindomain_scalar write:
    min(region0) of p = -0.030202136
    min(region0) of k = 6.5443555e-12
    min(region0) of omega = 5.0498837
    min(region0) of nut = 3.1126889e-19

volFieldValue mindomain_vector write:
    min(region0) of U = (0.00011044468 -0.00081812072 -7.8043798e-32)

volFieldValue maxdomain_scalar write:
    max(region0) of p = 0.093550591
    max(region0) of k = 0.0043261004
    max(region0) of omega = 1.1944345e+09
    max(region0) of nut = 3.7632073e-05

volFieldValue maxdomain_vector write:
    max(region0) of U = (1.0117701 0.05586328 6.9333876e-32)

fieldAverage fieldAverage write:
    Calculating averages

Courant Number mean: 0.54597498 max: 10.015221
deltaT = 0.0093457944
Time = 9.94393

PIMPLE: iteration 1
DILUPBiCGStab:  Solving for Ux, Initial residual = 2.091419e-07, Final residual = 1.2313562e-11, No Iterations 1
DILUPBiCGStab:  Solving for Uy, Initial residual = 2.3597907e-05, Final residual = 2.4729206e-10, No Iterations 1
DICPCG:  Solving for p, Initial residual = 0.00093007761, Final residual = 8.8961676e-06, No Iterations 12
DICPCG:  Solving for p, Initial residual = 8.8958276e-06, Final residual = 8.5055041e-07, No Iterations 68
time step continuity errors : sum local = 1.7776725e-11, global = -6.236662e-13, cumulative = -3.8099619e-10
DICPCG:  Solving for p, Initial residual = 0.00049567453, Final residual = 4.7825913e-06, No Iterations 8
DICPCG:  Solving for p, Initial residual = 4.7826466e-06, Final residual = 8.5786462e-07, No Iterations 25
time step continuity errors : sum local = 1.7929912e-11, global = -1.9167995e-12, cumulative = -3.8291299e-10
DILUPBiCGStab:  Solving for omega, Initial residual = 1.5884716e-09, Final residual = 1.0826192e-21, No Iterations 3
DILUPBiCGStab:  Solving for k, Initial residual = 1.0586152e-06, Final residual = 2.9907193e-15, No Iterations 3
ExecutionTime = 49.74 s  ClockTime = 50 s

volFieldValue minmaxdomain_scalar write:

volFieldValue minmaxdomain_vector write:

volFieldValue mindomain_scalar write:
    min(region0) of p = -0.030200887
    min(region0) of k = 6.5430885e-12
    min(region0) of omega = 5.0498837
    min(region0) of nut = 3.1126144e-19

volFieldValue mindomain_vector write:
    min(region0) of U = (0.00011044338 -0.00081821725 -7.8051694e-32)

volFieldValue maxdomain_scalar write:
    max(region0) of p = 0.093549416
    max(region0) of k = 0.0043261192
    max(region0) of omega = 1.1944345e+09
    max(region0) of nut = 3.763217e-05

volFieldValue maxdomain_vector write:
    max(region0) of U = (1.0117701 0.055862972 6.9340888e-32)

fieldAverage fieldAverage write:
    Calculating averages

Courant Number mean: 0.54597498 max: 10.015098
deltaT = 0.0093457944
Time = 9.95327

PIMPLE: iteration 1
DILUPBiCGStab:  Solving for Ux, Initial residual = 2.1181806e-07, Final residual = 1.2234488e-11, No Iterations 1
DILUPBiCGStab:  Solving for Uy, Initial residual = 2.3470867e-05, Final residual = 2.4770682e-10, No Iterations 1
DICPCG:  Solving for p, Initial residual = 0.00085123631, Final residual = 8.0949743e-06, No Iterations 21
DICPCG:  Solving for p, Initial residual = 8.094718e-06, Final residual = 8.227335e-07, No Iterations 25
time step continuity errors : sum local = 1.7196323e-11, global = -1.7718896e-12, cumulative = -3.8468488e-10
DICPCG:  Solving for p, Initial residual = 0.00059691694, Final residual = 5.2094175e-06, No Iterations 10
DICPCG:  Solving for p, Initial residual = 5.2094678e-06, Final residual = 8.7842668e-07, No Iterations 29
time step continuity errors : sum local = 1.835981e-11, global = -2.82636e-12, cumulative = -3.8751124e-10
DILUPBiCGStab:  Solving for omega, Initial residual = 1.5864347e-09, Final residual = 1.0820704e-21, No Iterations 3
DILUPBiCGStab:  Solving for k, Initial residual = 1.0577539e-06, Final residual = 2.993302e-15, No Iterations 3
ExecutionTime = 49.77 s  ClockTime = 50 s

volFieldValue minmaxdomain_scalar write:

volFieldValue minmaxdomain_vector write:

volFieldValue mindomain_scalar write:
    min(region0) of p = -0.030200631
    min(region0) of k = 6.5418229e-12
    min(region0) of omega = 5.0498838
    min(region0) of nut = 3.1125408e-19

volFieldValue mindomain_vector write:
    min(region0) of U = (0.0001104421 -0.0008183134 -7.8048525e-32)

volFieldValue maxdomain_scalar write:
    max(region0) of p = 0.093547221
    max(region0) of k = 0.0043261381
    max(region0) of omega = 1.1944345e+09
    max(region0) of nut = 3.7632265e-05

volFieldValue maxdomain_vector write:
    max(region0) of U = (1.01177 0.055862663 6.9338074e-32)

fieldAverage fieldAverage write:
    Calculating averages

Courant Number mean: 0.54597499 max: 10.014975
deltaT = 0.0093457944
Time = 9.96262

PIMPLE: iteration 1
DILUPBiCGStab:  Solving for Ux, Initial residual = 2.2476524e-07, Final residual = 1.2274696e-11, No Iterations 1
DILUPBiCGStab:  Solving for Uy, Initial residual = 2.706682e-05, Final residual = 2.4725547e-10, No Iterations 1
DICPCG:  Solving for p, Initial residual = 0.0010350334, Final residual = 9.080146e-06, No Iterations 8
DICPCG:  Solving for p, Initial residual = 9.0790977e-06, Final residual = 9.9172762e-07, No Iterations 60
time step continuity errors : sum local = 2.0732133e-11, global = 3.1957087e-13, cumulative = -3.8719167e-10
DICPCG:  Solving for p, Initial residual = 0.00063466877, Final residual = 5.3638213e-06, No Iterations 8
DICPCG:  Solving for p, Initial residual = 5.3639731e-06, Final residual = 9.566492e-07, No Iterations 29
time step continuity errors : sum local = 1.9999356e-11, global = -2.8524117e-12, cumulative = -3.9004408e-10
DILUPBiCGStab:  Solving for omega, Initial residual = 1.5844039e-09, Final residual = 1.080933e-21, No Iterations 3
DILUPBiCGStab:  Solving for k, Initial residual = 1.0569026e-06, Final residual = 2.9950391e-15, No Iterations 3
ExecutionTime = 49.82 s  ClockTime = 50 s

volFieldValue minmaxdomain_scalar write:

volFieldValue minmaxdomain_vector write:

volFieldValue mindomain_scalar write:
    min(region0) of p = -0.030198462
    min(region0) of k = 6.5405587e-12
    min(region0) of omega = 5.0498838
    min(region0) of nut = 3.1124681e-19

volFieldValue mindomain_vector write:
    min(region0) of U = (0.00011044083 -0.00081840895 -7.8059984e-32)

volFieldValue maxdomain_scalar write:
    max(region0) of p = 0.093546978
    max(region0) of k = 0.004326157
    max(region0) of omega = 1.1944345e+09
    max(region0) of nut = 3.763236e-05

volFieldValue maxdomain_vector write:
    max(region0) of U = (1.01177 0.055862355 6.9348256e-32)

fieldAverage fieldAverage write:
    Calculating averages

Courant Number mean: 0.54597499 max: 10.014852
deltaT = 0.0093457944
Time = 9.97196

PIMPLE: iteration 1
DILUPBiCGStab:  Solving for Ux, Initial residual = 2.1443088e-07, Final residual = 1.2237865e-11, No Iterations 1
DILUPBiCGStab:  Solving for Uy, Initial residual = 2.3292046e-05, Final residual = 2.4827764e-10, No Iterations 1
DICPCG:  Solving for p, Initial residual = 0.0010321908, Final residual = 9.0978616e-06, No Iterations 9
DICPCG:  Solving for p, Initial residual = 9.096313e-06, Final residual = 9.0226061e-07, No Iterations 34
time step continuity errors : sum local = 1.8867347e-11, global = 3.1952575e-12, cumulative = -3.8684882e-10
DICPCG:  Solving for p, Initial residual = 0.0007407473, Final residual = 7.3834079e-06, No Iterations 7
DICPCG:  Solving for p, Initial residual = 7.3837074e-06, Final residual = 8.1895061e-07, No Iterations 61
time step continuity errors : sum local = 1.7122576e-11, global = -6.6698736e-14, cumulative = -3.8691552e-10
DILUPBiCGStab:  Solving for omega, Initial residual = 1.5825126e-09, Final residual = 1.0805597e-21, No Iterations 3
DILUPBiCGStab:  Solving for k, Initial residual = 1.0560471e-06, Final residual = 2.9963462e-15, No Iterations 3
ExecutionTime = 49.85 s  ClockTime = 50 s

volFieldValue minmaxdomain_scalar write:

volFieldValue minmaxdomain_vector write:

volFieldValue mindomain_scalar write:
    min(region0) of p = -0.030199369
    min(region0) of k = 6.5392957e-12
    min(region0) of omega = 5.0498839
    min(region0) of nut = 3.1123963e-19

volFieldValue mindomain_vector write:
    min(region0) of U = (0.00011043957 -0.00081850426 -7.804873e-32)

volFieldValue maxdomain_scalar write:
    max(region0) of p = 0.093543642
    max(region0) of k = 0.0043261759
    max(region0) of omega = 1.1944345e+09
    max(region0) of nut = 3.7632453e-05

volFieldValue maxdomain_vector write:
    max(region0) of U = (1.01177 0.055862047 6.9338289e-32)

fieldAverage fieldAverage write:
    Calculating averages

Courant Number mean: 0.54597499 max: 10.014729
deltaT = 0.0093457944
Time = 9.98131

PIMPLE: iteration 1
DILUPBiCGStab:  Solving for Ux, Initial residual = 2.0803855e-07, Final residual = 1.2284744e-11, No Iterations 1
DILUPBiCGStab:  Solving for Uy, Initial residual = 2.3200551e-05, Final residual = 2.4742552e-10, No Iterations 1
DICPCG:  Solving for p, Initial residual = 0.001041, Final residual = 1.0005554e-05, No Iterations 8
DICPCG:  Solving for p, Initial residual = 1.0005085e-05, Final residual = 9.850805e-07, No Iterations 52
time step continuity errors : sum local = 2.0594231e-11, global = 3.750621e-14, cumulative = -3.8687802e-10
DICPCG:  Solving for p, Initial residual = 0.00074058867, Final residual = 5.8589313e-06, No Iterations 6
DICPCG:  Solving for p, Initial residual = 5.8595129e-06, Final residual = 8.9026194e-07, No Iterations 59
time step continuity errors : sum local = 1.8606233e-11, global = -2.2671656e-13, cumulative = -3.8710473e-10
DILUPBiCGStab:  Solving for omega, Initial residual = 1.5809255e-09, Final residual = 1.0798564e-21, No Iterations 3
DILUPBiCGStab:  Solving for k, Initial residual = 1.0551942e-06, Final residual = 2.9972237e-15, No Iterations 3
ExecutionTime = 49.89 s  ClockTime = 50 s

volFieldValue minmaxdomain_scalar write:

volFieldValue minmaxdomain_vector write:

volFieldValue mindomain_scalar write:
    min(region0) of p = -0.030200561
    min(region0) of k = 6.5380341e-12
    min(region0) of omega = 5.0498839
    min(region0) of nut = 3.1123254e-19

volFieldValue mindomain_vector write:
    min(region0) of U = (0.00011043833 -0.00081859903 -7.8040214e-32)

volFieldValue maxdomain_scalar write:
    max(region0) of p = 0.093540042
    max(region0) of k = 0.0043261948
    max(region0) of omega = 1.1944345e+09
    max(region0) of nut = 3.7632546e-05

volFieldValue maxdomain_vector write:
    max(region0) of U = (1.0117699 0.055861739 6.9330704e-32)

fieldAverage fieldAverage write:
    Calculating averages

Courant Number mean: 0.545975 max: 10.014606
deltaT = 0.0093457944
Time = 9.99065

PIMPLE: iteration 1
DILUPBiCGStab:  Solving for Ux, Initial residual = 2.0817493e-07, Final residual = 1.2312735e-11, No Iterations 1
DILUPBiCGStab:  Solving for Uy, Initial residual = 2.3564465e-05, Final residual = 2.4621354e-10, No Iterations 1
DICPCG:  Solving for p, Initial residual = 0.00098964682, Final residual = 9.3003506e-06, No Iterations 10
DICPCG:  Solving for p, Initial residual = 9.299943e-06, Final residual = 9.1675247e-07, No Iterations 62
time step continuity errors : sum local = 1.9160005e-11, global = -1.1668527e-12, cumulative = -3.8827159e-10
DICPCG:  Solving for p, Initial residual = 0.00058839895, Final residual = 4.688184e-06, No Iterations 8
DICPCG:  Solving for p, Initial residual = 4.6884786e-06, Final residual = 8.4094085e-07, No Iterations 11
time step continuity errors : sum local = 1.7573461e-11, global = -2.035804e-12, cumulative = -3.9030739e-10
DILUPBiCGStab:  Solving for omega, Initial residual = 1.579362e-09, Final residual = 1.0794444e-21, No Iterations 3
DILUPBiCGStab:  Solving for k, Initial residual = 1.054347e-06, Final residual = 2.9974603e-15, No Iterations 3
ExecutionTime = 49.93 s  ClockTime = 50 s

volFieldValue minmaxdomain_scalar write:

volFieldValue minmaxdomain_vector write:

volFieldValue mindomain_scalar write:
    min(region0) of p = -0.030199608
    min(region0) of k = 6.5367739e-12
    min(region0) of omega = 5.049884
    min(region0) of nut = 3.1122554e-19

volFieldValue mindomain_vector write:
    min(region0) of U = (0.00011043711 -0.00081869344 -7.8045494e-32)

volFieldValue maxdomain_scalar write:
    max(region0) of p = 0.093538587
    max(region0) of k = 0.0043262138
    max(region0) of omega = 1.1944345e+09
    max(region0) of nut = 3.7632638e-05

volFieldValue maxdomain_vector write:
    max(region0) of U = (1.0117699 0.055861431 6.9335382e-32)

fieldAverage fieldAverage write:
    Calculating averages

Courant Number mean: 0.545975 max: 10.014484
deltaT = 0.0093457944
Time = 10

PIMPLE: iteration 1
DILUPBiCGStab:  Solving for Ux, Initial residual = 2.0753976e-07, Final residual = 1.2260782e-11, No Iterations 1
DILUPBiCGStab:  Solving for Uy, Initial residual = 2.3354868e-05, Final residual = 2.4676716e-10, No Iterations 1
DICPCG:  Solving for p, Initial residual = 0.00083171062, Final residual = 8.1179362e-06, No Iterations 22
DICPCG:  Solving for p, Initial residual = 8.1174642e-06, Final residual = 7.949114e-07, No Iterations 59
time step continuity errors : sum local = 1.6613182e-11, global = -5.5097923e-15, cumulative = -3.903129e-10
DICPCG:  Solving for p, Initial residual = 0.00050915812, Final residual = 5.08298e-06, No Iterations 22
DICPCG:  Solving for p, Initial residual = 5.0830365e-06, Final residual = 8.7399017e-07, No Iterations 55
time step continuity errors : sum local = 1.8268455e-11, global = 5.9127524e-13, cumulative = -3.8972162e-10
DILUPBiCGStab:  Solving for omega, Initial residual = 1.5774078e-09, Final residual = 1.0786316e-21, No Iterations 3
DILUPBiCGStab:  Solving for k, Initial residual = 1.0535082e-06, Final residual = 2.9973781e-15, No Iterations 3
ExecutionTime = 49.98 s  ClockTime = 50 s

volFieldValue minmaxdomain_scalar write:

volFieldValue minmaxdomain_vector write:

volFieldValue mindomain_scalar write:
    min(region0) of p = -0.030198153
    min(region0) of k = 6.5355151e-12
    min(region0) of omega = 5.049884
    min(region0) of nut = 3.1121862e-19

volFieldValue mindomain_vector write:
    min(region0) of U = (0.0001104359 -0.00081878748 -7.8049978e-32)

volFieldValue maxdomain_scalar write:
    max(region0) of p = 0.093537605
    max(region0) of k = 0.0043262328
    max(region0) of omega = 1.1944345e+09
    max(region0) of nut = 3.7632728e-05

volFieldValue maxdomain_vector write:
    max(region0) of U = (1.0117698 0.055861123 6.9339405e-32)

wallShearStress wallShearStress1 write:
    writing field wallShearStress
    min/max(bottom) = (-0.047325681 -0.0024621091 -7.792427e-37), (-0.0016526926 4.8806333e-08 7.1357711e-37)
fieldAverage fieldAverage write:
    Calculating averages

    Writing average fields

writeObjects writeObjects1 write:
--> FOAM Warning : 
    From virtual bool Foam::functionObjects::writeObjects::write()
    in file writeObjects/writeObjects.C at line 162
    No corresponding selection for (kOmegaSSTDES:G "(CDES*delta)")
Available objects in database:

70
(
MRFProperties
U
UMean
UMeanPrevIter
UPrevIter
UPrime2Mean
UPrime2MeanPrevIter
U_0
U_0PrevIter
U_0PrevIter_0
U_0_0
U_0_0PrevIter
boundary
cellZones
cumulativeContErr
data
delta
deltaPrevIter
faceZones
faces
fvOptions
fvSchemes
fvSolution
k
kPrevIter
k_0
k_0PrevIter
k_0PrevIter_0
k_0_0
k_0_0PrevIter
neighbour
nu
nuPrevIter
nut
nutMean
nutMeanPrevIter
nutPrevIter
nutPrime2Mean
nutPrime2MeanPrevIter
omega
omegaPrevIter
omega_0
omega_0PrevIter
omega_0PrevIter_0
omega_0_0
omega_0_0PrevIter
owner
p
pMean
pMeanPrevIter
pPrevIter
pPrime2Mean
pPrime2MeanPrevIter
phi
phi_0
phi_0_0
pointZones
points
solutionControl
transportProperties
turbulenceProperties
wallDist
wallShearStress
wallShearStressMean
wallShearStressMeanPrevIter
wallShearStressPrevIter
wallShearStressPrime2Mean
wallShearStressPrime2MeanPrevIter
yWall
yWallPrevIter
)

End

