Cleaning case /home/danilom/Trabalho_Modelagem_Turbulencia/GT2/RANS/KOmegaSST_highRE
Cleaning case /home/danilom/Trabalho_Modelagem_Turbulencia/GT2/RANS/KOmegaSST_highRE
/*---------------------------------------------------------------------------*\
| =========                 |                                                 |
| \\      /  F ield         | OpenFOAM: The Open Source CFD Toolbox           |
|  \\    /   O peration     | Version:  2206                                  |
|   \\  /    A nd           | Website:  www.openfoam.com                      |
|    \\/     M anipulation  |                                                 |
\*---------------------------------------------------------------------------*/
Build  : _da9441b0-20260127 OPENFOAM=2206 patch=260127 version=2206
Arch   : "LSB;label=32;scalar=64"
Exec   : blockMesh
Date   : Jun 12 2026
Time   : 12:54:37
Host   : NotebookdoDan
PID    : 118184
I/O    : uncollated
Case   : /home/danilom/Trabalho_Modelagem_Turbulencia/GT2/RANS/KOmegaSST_highRE
nProcs : 1
trapFpe: Floating point exception trapping enabled (FOAM_SIGFPE).
fileModificationChecking : Monitoring run-time modified files using timeStampMaster (fileModificationSkew 5, maxFileModificationPolls 20)
allowSystemOperations : Allowing user-supplied system call operations

// * * * * * * * * * * * * * * * * * * * * * * * * * * * * * * * * * * * * * //
Create time

--> FOAM Warning : 
    From static Foam::IOstreamOption::compressionType Foam::IOstreamOption::compressionEnum(const Foam::word&, compressionType)
    in file db/IOstreams/IOstreams/IOstreamOption.C at line 115
    Unknown compression specifier 'uncompressed', using compression off
Creating block mesh from "system/blockMeshDict"
Creating block edges
No non-planar block faces defined
Creating topology blocks

Creating topology patches - from boundary section

Creating block mesh topology

Check topology

	Basic statistics
		Number of internal faces : 4
		Number of boundary faces : 16
		Number of defined boundary faces : 16
		Number of undefined boundary faces : 0
	Checking patch -> block consistency

Creating block offsets
Creating merge list (topological search)...

Creating polyMesh from blockMesh
Creating patches
Creating cells
Creating points with scale (1 1 1)
    Block 0 cell size :
        i : 0.0031326302 .. 0.062652604
        j : 1 .. 1
        k : 0.00080132959 .. 0.004006648

    Block 1 cell size :
        i : 0.09788384 .. 0.004894192
        j : 1 .. 1
        k : 0.00080132959 .. 0.004006648

    Block 2 cell size :
        i : 0.09788384 .. 0.004894192
        j : 1 .. 1
        k : 0.0044790816 .. 0.17916326

    Block 3 cell size :
        i : 0.0031326302 .. 0.062652604
        j : 1 .. 1
        k : 0.0044790816 .. 0.17916326


There are no merge patch pairs

Writing polyMesh with 0 cellZones
----------------
Mesh Information
----------------
  boundingBox: (-0.33333 0 0) (2 1 1)
  nPoints: 15318
  nCells: 7480
  nFaces: 30098
  nInternalFaces: 14782
----------------
Patches
----------------
  patch 0 (start: 14782 size: 68) name: inlet
  patch 1 (start: 14850 size: 110) name: top
  patch 2 (start: 14960 size: 68) name: outlet
  patch 3 (start: 15028 size: 10) name: slipsurface
  patch 4 (start: 15038 size: 100) name: bottom
  patch 5 (start: 15138 size: 14960) name: frontandback

End

/*---------------------------------------------------------------------------*\
| =========                 |                                                 |
| \\      /  F ield         | OpenFOAM: The Open Source CFD Toolbox           |
|  \\    /   O peration     | Version:  2206                                  |
|   \\  /    A nd           | Website:  www.openfoam.com                      |
|    \\/     M anipulation  |                                                 |
\*---------------------------------------------------------------------------*/
Build  : _da9441b0-20260127 OPENFOAM=2206 patch=260127 version=2206
Arch   : "LSB;label=32;scalar=64"
Exec   : checkMesh
Date   : Jun 12 2026
Time   : 12:54:37
Host   : NotebookdoDan
PID    : 118185
I/O    : uncollated
Case   : /home/danilom/Trabalho_Modelagem_Turbulencia/GT2/RANS/KOmegaSST_highRE
nProcs : 1
trapFpe: Floating point exception trapping enabled (FOAM_SIGFPE).
fileModificationChecking : Monitoring run-time modified files using timeStampMaster (fileModificationSkew 5, maxFileModificationPolls 20)
allowSystemOperations : Allowing user-supplied system call operations

// * * * * * * * * * * * * * * * * * * * * * * * * * * * * * * * * * * * * * //
Create time

--> FOAM Warning : 
    From static Foam::IOstreamOption::compressionType Foam::IOstreamOption::compressionEnum(const Foam::word&, compressionType)
    in file db/IOstreams/IOstreams/IOstreamOption.C at line 115
    Unknown compression specifier 'uncompressed', using compression off
Create mesh for time = 0

Time = 0

Mesh stats 
    points:           15318
    internal points:  0
    faces:            30098
    internal faces:   14782
    cells:            7480
    faces per cell:   6
    boundary patches: 6
    point zones:      0
    face zones:       0
    cell zones:       0

Overall number of cells of each type:
    hexahedra:     7480
    prisms:        0
    wedges:        0
    pyramids:      0
    tet wedges:    0
    tetrahedra:    0
    polyhedra:     0

Checking topology...
    Boundary definition OK.
    Cell to face addressing OK.
    Point usage OK.
    Upper triangular ordering OK.
    Face vertices OK.
    Number of regions: 1 (OK).

Checking patch topology for multiply connected surfaces...
    Patch               Faces    Points   Surface topology                  
    inlet               68       138      ok (non-closed singly connected)  
    top                 110      222      ok (non-closed singly connected)  
    outlet              68       138      ok (non-closed singly connected)  
    slipsurface         10       22       ok (non-closed singly connected)  
    bottom              100      202      ok (non-closed singly connected)  
    frontandback        14960    15318    ok (non-closed singly connected)  

Checking faceZone topology for multiply connected surfaces...
    No faceZones found.

Checking basic cellZone addressing...
    No cellZones found.

Checking geometry...
    Overall domain bounding box (-0.33333 0 0) (2 1 1)
    Mesh has 2 geometric (non-empty/wedge) directions (1 1 0)
    Mesh has 2 solution (non-empty) directions (1 1 0)
    All edges aligned with or perpendicular to non-empty directions.
    Boundary openness (2.4490243e-17 1.3714536e-16 -2.8559832e-16) OK.
    Max cell openness = 1.6234028e-16 OK.
    Max aspect ratio = 122.15178 OK.
    Minimum face area = 2.5102693e-06. Maximum face area = 0.17916326.  Face area magnitudes OK.
    Min volume = 2.5102693e-06. Max volume = 0.017537188.  Total volume = 2.33333.  Cell volumes OK.
    Mesh non-orthogonality Max: 0 average: 0
    Non-orthogonality check OK.
    Face pyramids OK.
    Max skewness = 2.5965425e-14 OK.
    Coupled point location match (average 0) OK.

Mesh OK.

End

-> Aqui comeca o solver para o modelo k-omega SST !
--> FOAM [01;31m[KWarning[m[K : 
    From static Foam::IOstreamOption::compressionType Foam::IOstreamOption::compressionEnum(const Foam::word&, compressionType)
    in file db/IOstreams/IOstreams/IOstreamOption.C at line 115
    Unknown compression specifier 'uncompressed', using compression off
Create mesh for time = 0


SIMPLE: convergence criteria
    field p	 tolerance 1e-06
    field U	 tolerance 1e-06
    field "(k|omega)"	 tolerance 1e-06

Reading field p

Reading field U

Reading/calculating face flux field phi

Selecting incompressible transport model Newtonian
Selecting turbulence model type RAS
Selecting RAS turbulence model kOmegaSST
-> Executando pos-processamento...
--> FOAM [01;31m[KWarning[m[K : 
    From static Foam::IOstreamOption::compressionType Foam::IOstreamOption::compressionEnum(const Foam::word&, compressionType)
    in file db/IOstreams/IOstreams/IOstreamOption.C at line 115
    Unknown compression specifier 'uncompressed', using compression off
Create mesh for time = 2000


SIMPLE: convergence criteria
    field p	 tolerance 1e-06
    field U	 tolerance 1e-06
    field "(k|omega)"	 tolerance 1e-06

wallShearStress wallShearStress:
    processing all wall patches

Time = 2000
Reading field p

Reading field U

Reading/calculating face flux field phi
--> FOAM [01;31m[KWarning[m[K : 
    From static Foam::IOstreamOption::compressionType Foam::IOstreamOption::compressionEnum(const Foam::word&, compressionType)
    in file db/IOstreams/IOstreams/IOstreamOption.C at line 115
    Unknown compression specifier 'uncompressed', using compression off
Create mesh for time = 2000


SIMPLE: convergence criteria
    field p	 tolerance 1e-06
    field U	 tolerance 1e-06
    field "(k|omega)"	 tolerance 1e-06

Time = 2000
Reading field p

Reading field U

Reading/calculating face flux field phi

Selecting incompressible transport model Newtonian
Selecting turbulence model type RAS
--> FOAM [01;31m[KWarning[m[K : 
    From static Foam::IOstreamOption::compressionType Foam::IOstreamOption::compressionEnum(const Foam::word&, compressionType)
    in file db/IOstreams/IOstreams/IOstreamOption.C at line 115
    Unknown compression specifier 'uncompressed', using compression off
Create mesh for time = 2000


SIMPLE: convergence criteria
    field p	 tolerance 1e-06
    field U	 tolerance 1e-06
    field "(k|omega)"	 tolerance 1e-06

Sampled set:
    profile0 -> raw
    profile1 -> raw
    profile3 -> raw

Time = 2000
Reading field p

Reading field U
[36m[K--[m[K
--> FOAM [01;31m[KWarning[m[K : 
    From Foam::IOobjectList Foam::sampledSets::preCheckFields(unsigned int)
    in file sampledSet/sampledSets/sampledSets.C at line 219
    
Cannot find registered field matching 1(wallShearStress)

End

--> FOAM IOWarning :
    Found [v1012] 'convertToMeters' entry instead of 'scale' in dictionary "system/blockMeshDict"

    This keyword is 138 months old.

