/*---------------------------------------------------------------------------*\
| =========                 |                                                 |
| \\      /  F ield         | OpenFOAM: The Open Source CFD Toolbox           |
|  \\    /   O peration     | Version:  2206                                  |
|   \\  /    A nd           | Website:  www.openfoam.com                      |
|    \\/     M anipulation  |                                                 |
\*---------------------------------------------------------------------------*/
Build  : _da9441b0-20260127 OPENFOAM=2206 patch=260127 version=2206
Arch   : "LSB;label=32;scalar=64"
Exec   : simpleFoam
Date   : Jun 12 2026
Time   : 10:22:33
Host   : NotebookdoDan
PID    : 67528
I/O    : uncollated
Case   : /home/danilom/Trabalho_Modelagem_Turbulencia/GT2/RANS/KOmegaSST_highRE
nProcs : 1
trapFpe: Floating point exception trapping enabled (FOAM_SIGFPE).
fileModificationChecking : Monitoring run-time modified files using timeStampMaster (fileModificationSkew 5, maxFileModificationPolls 20)
allowSystemOperations : Allowing user-supplied system call operations

// * * * * * * * * * * * * * * * * * * * * * * * * * * * * * * * * * * * * * //
Create time

--> FOAM Warning : 
    From static Foam::IOstreamOption::compressionType Foam::IOstreamOption::compressionEnum(const Foam::word&, compressionType)
    in file db/IOstreams/IOstreams/IOstreamOption.C at line 115
    Unknown compression specifier 'uncompressed', using compression off
Create mesh for time = 0


SIMPLE: convergence criteria
    field p	 tolerance 1e-06
    field U	 tolerance 1e-06
    field "(k|omega)"	 tolerance 1e-06

Reading field p

Reading field U

Reading/calculating face flux field phi

Selecting incompressible transport model Newtonian
Selecting turbulence model type RAS
Selecting RAS turbulence model kOmegaSST
Selecting patchDistMethod meshWave
RAS
{
    RASModel        kOmegaSST;
    turbulence      on;
    printCoeffs     on;
    alphaK1         0.85;
    alphaK2         1;
    alphaOmega1     0.5;
    alphaOmega2     0.856;
    gamma1          0.55555556;
    gamma2          0.44;
    beta1           0.075;
    beta2           0.0828;
    betaStar        0.09;
    a1              0.31;
    b1              1;
    c1              10;
    F3              false;
    decayControl    false;
    kInf            0;
    omegaInf        0;
}

No MRF models present

No finite volume options present

Starting time loop

Time = 1

DILUPBiCGStab:  Solving for Ux, Initial residual = 1, Final residual = 4.4963528e-09, No Iterations 6
DILUPBiCGStab:  Solving for Uy, Initial residual = 0.33289688, Final residual = 4.4009928e-09, No Iterations 7
DICPCG:  Solving for p, Initial residual = 1, Final residual = 0.008481488, No Iterations 84
DICPCG:  Solving for p, Initial residual = 3.8593812e-05, Final residual = 3.835733e-07, No Iterations 31
DICPCG:  Solving for p, Initial residual = 3.835889e-07, Final residual = 9.9400984e-09, No Iterations 39
time step continuity errors : sum local = 1.3359624e-09, global = -2.0088497e-10, cumulative = -2.0088497e-10
DILUPBiCGStab:  Solving for omega, Initial residual = 0.66783381, Final residual = 8.4573812e-12, No Iterations 3
DILUPBiCGStab:  Solving for k, Initial residual = 1, Final residual = 5.5386836e-10, No Iterations 3
ExecutionTime = 0.13 s  ClockTime = 0 s

volFieldValue minmaxdomain_scalar write:

volFieldValue minmaxdomain_vector write:

volFieldValue mindomain_scalar write:
    min(region0) of p = 7.6573566e-05
    min(region0) of k = 5.0110634e-05
    min(region0) of omega = 179.55186
    min(region0) of nut = 7.3736856e-08

volFieldValue mindomain_vector write:
    min(region0) of U = (0.28736672 -4.6212774e-19 0)

volFieldValue maxdomain_scalar write:
    max(region0) of p = 0.025232236
    max(region0) of k = 0.0011385717
    max(region0) of omega = 7476.3714
    max(region0) of nut = 3.0790321e-07

volFieldValue maxdomain_vector write:
    max(region0) of U = (1.0034616 0.023482843 0)

Time = 2

DILUPBiCGStab:  Solving for Ux, Initial residual = 0.061794732, Final residual = 3.722142e-09, No Iterations 6
DILUPBiCGStab:  Solving for Uy, Initial residual = 0.28669773, Final residual = 8.4229562e-09, No Iterations 7
DICPCG:  Solving for p, Initial residual = 0.011777442, Final residual = 0.00010520323, No Iterations 82
DICPCG:  Solving for p, Initial residual = 0.00013224749, Final residual = 1.191067e-06, No Iterations 28
DICPCG:  Solving for p, Initial residual = 1.1910381e-06, Final residual = 1.1793748e-08, No Iterations 67
time step continuity errors : sum local = 1.2669265e-09, global = 1.9782859e-11, cumulative = -1.8110211e-10
DILUPBiCGStab:  Solving for omega, Initial residual = 0.18558076, Final residual = 1.4698349e-10, No Iterations 3
DILUPBiCGStab:  Solving for k, Initial residual = 0.32553821, Final residual = 2.1953841e-09, No Iterations 3
ExecutionTime = 0.17 s  ClockTime = 0 s

volFieldValue minmaxdomain_scalar write:

volFieldValue minmaxdomain_vector write:

volFieldValue mindomain_scalar write:
    min(region0) of p = 2.6277583e-05
    min(region0) of k = 2.5193858e-05
    min(region0) of omega = 61.965066
    min(region0) of nut = 7.9797549e-08

volFieldValue mindomain_vector write:
    min(region0) of U = (0.14300173 -3.6512957e-07 0)

volFieldValue maxdomain_scalar write:
    max(region0) of p = 0.034999293
    max(region0) of k = 0.0034172415
    max(region0) of omega = 7484.5334
    max(region0) of nut = 4.5661036e-07

volFieldValue maxdomain_vector write:
    max(region0) of U = (1.004774 0.031196747 0)

Time = 3

DILUPBiCGStab:  Solving for Ux, Initial residual = 0.02461516, Final residual = 8.6895882e-09, No Iterations 6
DILUPBiCGStab:  Solving for Uy, Initial residual = 0.16735726, Final residual = 4.9391281e-09, No Iterations 7
DICPCG:  Solving for p, Initial residual = 0.011832199, Final residual = 9.4270421e-05, No Iterations 77
DICPCG:  Solving for p, Initial residual = 0.00011366189, Final residual = 1.0997867e-06, No Iterations 34
DICPCG:  Solving for p, Initial residual = 1.0997941e-06, Final residual = 1.080645e-08, No Iterations 68
time step continuity errors : sum local = 9.7003127e-10, global = 2.3250598e-11, cumulative = -1.5785151e-10
DILUPBiCGStab:  Solving for omega, Initial residual = 0.067288806, Final residual = 4.2229944e-10, No Iterations 3
DILUPBiCGStab:  Solving for k, Initial residual = 0.16827547, Final residual = 2.8669371e-09, No Iterations 3
ExecutionTime = 0.22 s  ClockTime = 0 s

volFieldValue minmaxdomain_scalar write:

volFieldValue minmaxdomain_vector write:

volFieldValue mindomain_scalar write:
    min(region0) of p = 9.0506898e-06
    min(region0) of k = 1.6197025e-05
    min(region0) of omega = 32.470058
    min(region0) of nut = 6.3405899e-08

volFieldValue mindomain_vector write:
    min(region0) of U = (0.10034542 -5.0534795e-05 0)

volFieldValue maxdomain_scalar write:
    max(region0) of p = 0.041992898
    max(region0) of k = 0.006300864
    max(region0) of omega = 7503.3132
    max(region0) of nut = 8.3974424e-07

volFieldValue maxdomain_vector write:
    max(region0) of U = (1.0051166 0.035811585 0)

Time = 4

DILUPBiCGStab:  Solving for Ux, Initial residual = 0.01432084, Final residual = 5.7517669e-09, No Iterations 6
DILUPBiCGStab:  Solving for Uy, Initial residual = 0.11468448, Final residual = 5.429783e-09, No Iterations 6
DICPCG:  Solving for p, Initial residual = 0.012590669, Final residual = 0.00011657607, No Iterations 78
DICPCG:  Solving for p, Initial residual = 0.0001312869, Final residual = 1.2705031e-06, No Iterations 38
DICPCG:  Solving for p, Initial residual = 1.2705511e-06, Final residual = 1.1876776e-08, No Iterations 74
time step continuity errors : sum local = 9.5288771e-10, global = -8.5462089e-13, cumulative = -1.5870613e-10
DILUPBiCGStab:  Solving for omega, Initial residual = 0.032718985, Final residual = 4.5982682e-10, No Iterations 3
DILUPBiCGStab:  Solving for k, Initial residual = 0.13155912, Final residual = 3.0680681e-09, No Iterations 3
ExecutionTime = 0.26 s  ClockTime = 0 s

volFieldValue minmaxdomain_scalar write:

volFieldValue minmaxdomain_vector write:

volFieldValue mindomain_scalar write:
    min(region0) of p = -8.9059034e-06
    min(region0) of k = 1.186844e-05
    min(region0) of omega = 21.755416
    min(region0) of nut = 4.6844414e-08

volFieldValue mindomain_vector write:
    min(region0) of U = (0.081017702 -0.00039313768 0)

volFieldValue maxdomain_scalar write:
    max(region0) of p = 0.047246033
    max(region0) of k = 0.0088844081
    max(region0) of omega = 7527.0116
    max(region0) of nut = 1.1803367e-06

volFieldValue maxdomain_vector write:
    max(region0) of U = (1.0051549 0.038473982 0)

Time = 5

DILUPBiCGStab:  Solving for Ux, Initial residual = 0.0097843526, Final residual = 6.7549485e-09, No Iterations 6
DILUPBiCGStab:  Solving for Uy, Initial residual = 0.082365446, Final residual = 4.9279215e-09, No Iterations 7
DICPCG:  Solving for p, Initial residual = 0.012565041, Final residual = 0.00012018531, No Iterations 79
DICPCG:  Solving for p, Initial residual = 0.00013234007, Final residual = 1.2234949e-06, No Iterations 47
DICPCG:  Solving for p, Initial residual = 1.2234963e-06, Final residual = 1.0852239e-08, No Iterations 65
time step continuity errors : sum local = 7.9517955e-10, global = -3.7592884e-11, cumulative = -1.9629901e-10
DILUPBiCGStab:  Solving for omega, Initial residual = 0.018477429, Final residual = 3.7199536e-10, No Iterations 3
DILUPBiCGStab:  Solving for k, Initial residual = 0.10359235, Final residual = 2.5440133e-09, No Iterations 3
ExecutionTime = 0.31 s  ClockTime = 0 s

volFieldValue minmaxdomain_scalar write:

volFieldValue minmaxdomain_vector write:

volFieldValue mindomain_scalar write:
    min(region0) of p = -0.00160322
    min(region0) of k = 9.3801801e-06
    min(region0) of omega = 16.59634
    min(region0) of nut = 3.4634579e-08

volFieldValue mindomain_vector write:
    min(region0) of U = (0.069702561 -0.0011218911 0)

volFieldValue maxdomain_scalar write:
    max(region0) of p = 0.050626854
    max(region0) of k = 0.010832398
    max(region0) of omega = 7548.1806
    max(region0) of nut = 1.4351006e-06

volFieldValue maxdomain_vector write:
    max(region0) of U = (1.0054181 0.039588103 0)

Time = 6

DILUPBiCGStab:  Solving for Ux, Initial residual = 0.0073756456, Final residual = 8.7804261e-09, No Iterations 5
DILUPBiCGStab:  Solving for Uy, Initial residual = 0.059536464, Final residual = 7.4278521e-09, No Iterations 6
DICPCG:  Solving for p, Initial residual = 0.012173696, Final residual = 0.00011780394, No Iterations 73
DICPCG:  Solving for p, Initial residual = 0.00012503429, Final residual = 1.1508596e-06, No Iterations 75
DICPCG:  Solving for p, Initial residual = 1.1511551e-06, Final residual = 1.1409118e-08, No Iterations 56
time step continuity errors : sum local = 7.9129946e-10, global = 9.9931995e-11, cumulative = -9.636702e-11
DILUPBiCGStab:  Solving for omega, Initial residual = 0.011992885, Final residual = 5.5935036e-10, No Iterations 3
DILUPBiCGStab:  Solving for k, Initial residual = 0.080483673, Final residual = 1.4804477e-09, No Iterations 3
ExecutionTime = 0.36 s  ClockTime = 0 s

volFieldValue minmaxdomain_scalar write:

volFieldValue minmaxdomain_vector write:

volFieldValue mindomain_scalar write:
    min(region0) of p = -0.0042322978
    min(region0) of k = 7.7752922e-06
    min(region0) of omega = 13.649797
    min(region0) of nut = 2.627693e-08

volFieldValue mindomain_vector write:
    min(region0) of U = (0.062090071 -0.0017156151 0)

volFieldValue maxdomain_scalar write:
    max(region0) of p = 0.052607069
    max(region0) of k = 0.012126536
    max(region0) of omega = 7564.1029
    max(region0) of nut = 1.6031692e-06

volFieldValue maxdomain_vector write:
    max(region0) of U = (1.0058662 0.039857532 0)

Time = 7

DILUPBiCGStab:  Solving for Ux, Initial residual = 0.0059281366, Final residual = 1.160986e-09, No Iterations 6
DILUPBiCGStab:  Solving for Uy, Initial residual = 0.045879635, Final residual = 5.7112531e-09, No Iterations 6
DICPCG:  Solving for p, Initial residual = 0.011753252, Final residual = 0.00010529266, No Iterations 63
DICPCG:  Solving for p, Initial residual = 0.00011131382, Final residual = 1.0751451e-06, No Iterations 72
DICPCG:  Solving for p, Initial residual = 1.075504e-06, Final residual = 9.8956405e-09, No Iterations 64
time step continuity errors : sum local = 6.5130912e-10, global = 6.0782784e-12, cumulative = -9.0288741e-11
DILUPBiCGStab:  Solving for omega, Initial residual = 0.0081343422, Final residual = 2.1668531e-09, No Iterations 3
DILUPBiCGStab:  Solving for k, Initial residual = 0.061425845, Final residual = 3.5501889e-09, No Iterations 3
ExecutionTime = 0.41 s  ClockTime = 0 s

volFieldValue minmaxdomain_scalar write:

volFieldValue minmaxdomain_vector write:

volFieldValue mindomain_scalar write:
    min(region0) of p = -0.006094929
    min(region0) of k = 6.6540655e-06
    min(region0) of omega = 11.77626
    min(region0) of nut = 2.0605454e-08

volFieldValue mindomain_vector write:
    min(region0) of U = (0.05655827 -0.0027027878 0)

volFieldValue maxdomain_scalar write:
    max(region0) of p = 0.053488443
    max(region0) of k = 0.012922003
    max(region0) of omega = 7574.6623
    max(region0) of nut = 1.7059511e-06

volFieldValue maxdomain_vector write:
    max(region0) of U = (1.0064303 0.040074005 0)

Time = 8

DILUPBiCGStab:  Solving for Ux, Initial residual = 0.0048490964, Final residual = 1.2800321e-09, No Iterations 6
DILUPBiCGStab:  Solving for Uy, Initial residual = 0.036813955, Final residual = 3.8236707e-09, No Iterations 6
DICPCG:  Solving for p, Initial residual = 0.011533146, Final residual = 0.00011181855, No Iterations 63
DICPCG:  Solving for p, Initial residual = 0.00011569938, Final residual = 9.5950589e-07, No Iterations 63
DICPCG:  Solving for p, Initial residual = 9.5952978e-07, Final residual = 7.0761501e-09, No Iterations 67
time step continuity errors : sum local = 4.5144744e-10, global = -1.3831535e-11, cumulative = -1.0412028e-10
DILUPBiCGStab:  Solving for omega, Initial residual = 0.0058397104, Final residual = 3.1637365e-11, No Iterations 4
DILUPBiCGStab:  Solving for k, Initial residual = 0.047515351, Final residual = 4.3973294e-09, No Iterations 3
ExecutionTime = 0.45 s  ClockTime = 0 s

volFieldValue minmaxdomain_scalar write:

volFieldValue minmaxdomain_vector write:

volFieldValue mindomain_scalar write:
    min(region0) of p = -0.0071748515
    min(region0) of k = 5.8233578e-06
    min(region0) of omega = 10.496212
    min(region0) of nut = 1.6699505e-08

volFieldValue mindomain_vector write:
    min(region0) of U = (0.052344244 -0.0030627489 0)

volFieldValue maxdomain_scalar write:
    max(region0) of p = 0.053834644
    max(region0) of k = 0.013404544
    max(region0) of omega = 7581.1455
    max(region0) of nut = 1.7681423e-06

volFieldValue maxdomain_vector write:
    max(region0) of U = (1.0070146 0.040290814 0)

Time = 9

DILUPBiCGStab:  Solving for Ux, Initial residual = 0.0040880359, Final residual = 4.7867112e-09, No Iterations 5
DILUPBiCGStab:  Solving for Uy, Initial residual = 0.030014412, Final residual = 6.7701451e-09, No Iterations 6
DICPCG:  Solving for p, Initial residual = 0.010937497, Final residual = 0.00010801222, No Iterations 66
DICPCG:  Solving for p, Initial residual = 0.00011024379, Final residual = 9.6161097e-07, No Iterations 74
DICPCG:  Solving for p, Initial residual = 9.6191771e-07, Final residual = 9.1059329e-09, No Iterations 38
time step continuity errors : sum local = 5.7032124e-10, global = 9.4577695e-11, cumulative = -9.542582e-12
DILUPBiCGStab:  Solving for omega, Initial residual = 0.0042969135, Final residual = 1.5548207e-09, No Iterations 3
DILUPBiCGStab:  Solving for k, Initial residual = 0.037511653, Final residual = 1.9869871e-09, No Iterations 3
ExecutionTime = 0.5 s  ClockTime = 0 s

volFieldValue minmaxdomain_scalar write:

volFieldValue minmaxdomain_vector write:

volFieldValue mindomain_scalar write:
    min(region0) of p = -0.0073277948
    min(region0) of k = 5.1795441e-06
    min(region0) of omega = 9.5761158
    min(region0) of nut = 1.3947355e-08

volFieldValue mindomain_vector write:
    min(region0) of U = (0.049036821 -0.0010812516 0)

volFieldValue maxdomain_scalar write:
    max(region0) of p = 0.053890925
    max(region0) of k = 0.01369276
    max(region0) of omega = 7585.0757
    max(region0) of nut = 1.9658862e-06

volFieldValue maxdomain_vector write:
    max(region0) of U = (1.0074901 0.040374899 0)

Time = 10

DILUPBiCGStab:  Solving for Ux, Initial residual = 0.0034857189, Final residual = 3.4077274e-09, No Iterations 5
DILUPBiCGStab:  Solving for Uy, Initial residual = 0.025021673, Final residual = 7.8531304e-09, No Iterations 6
DICPCG:  Solving for p, Initial residual = 0.010162498, Final residual = 9.5199189e-05, No Iterations 43
DICPCG:  Solving for p, Initial residual = 9.5227332e-05, Final residual = 8.6517032e-07, No Iterations 67
DICPCG:  Solving for p, Initial residual = 8.6733913e-07, Final residual = 9.8347475e-09, No Iterations 27
time step continuity errors : sum local = 6.1550771e-10, global = 7.4665034e-12, cumulative = -2.0760787e-12
DILUPBiCGStab:  Solving for omega, Initial residual = 0.0032457572, Final residual = 8.5859066e-10, No Iterations 3
DILUPBiCGStab:  Solving for k, Initial residual = 0.030537818, Final residual = 1.1177983e-09, No Iterations 3
ExecutionTime = 0.55 s  ClockTime = 0 s

volFieldValue minmaxdomain_scalar write:

volFieldValue minmaxdomain_vector write:

volFieldValue mindomain_scalar write:
    min(region0) of p = -0.0073010581
    min(region0) of k = 4.6625444e-06
    min(region0) of omega = 8.8895846
    min(region0) of nut = 1.1961548e-08

volFieldValue mindomain_vector write:
    min(region0) of U = (0.046395161 -0.0026145601 0)

volFieldValue maxdomain_scalar write:
    max(region0) of p = 0.053867164
    max(region0) of k = 0.013862928
    max(region0) of omega = 7587.4221
    max(region0) of nut = 2.5828813e-06

volFieldValue maxdomain_vector write:
    max(region0) of U = (1.0077986 0.040462941 0)

Time = 11

DILUPBiCGStab:  Solving for Ux, Initial residual = 0.0030221086, Final residual = 3.044029e-09, No Iterations 5
DILUPBiCGStab:  Solving for Uy, Initial residual = 0.020810998, Final residual = 4.4744393e-09, No Iterations 6
DICPCG:  Solving for p, Initial residual = 0.0090788008, Final residual = 8.0835697e-05, No Iterations 69
DICPCG:  Solving for p, Initial residual = 8.0362793e-05, Final residual = 7.8936855e-07, No Iterations 70
DICPCG:  Solving for p, Initial residual = 7.8908166e-07, Final residual = 9.9791059e-09, No Iterations 68
time step continuity errors : sum local = 6.2913406e-10, global = -8.0076842e-11, cumulative = -8.2152921e-11
DILUPBiCGStab:  Solving for omega, Initial residual = 0.0024893612, Final residual = 5.0917804e-10, No Iterations 3
DILUPBiCGStab:  Solving for k, Initial residual = 0.025839819, Final residual = 7.9601561e-10, No Iterations 3
ExecutionTime = 0.6 s  ClockTime = 0 s

volFieldValue minmaxdomain_scalar write:

volFieldValue minmaxdomain_vector write:

volFieldValue mindomain_scalar write:
    min(region0) of p = -0.0067710084
    min(region0) of k = 4.2354153e-06
    min(region0) of omega = 8.3625633
    min(region0) of nut = 1.0497756e-08

volFieldValue mindomain_vector write:
    min(region0) of U = (0.044266725 -0.0011813222 0)

volFieldValue maxdomain_scalar write:
    max(region0) of p = 0.053818947
    max(region0) of k = 0.013962905
    max(region0) of omega = 7588.8071
    max(region0) of nut = 3.3596338e-06

volFieldValue maxdomain_vector write:
    max(region0) of U = (1.0080424 0.040581704 0)

Time = 12

DILUPBiCGStab:  Solving for Ux, Initial residual = 0.0026301403, Final residual = 2.9284389e-09, No Iterations 5
DILUPBiCGStab:  Solving for Uy, Initial residual = 0.017374927, Final residual = 4.937831e-09, No Iterations 6
DICPCG:  Solving for p, Initial residual = 0.008150306, Final residual = 7.8652556e-05, No Iterations 61
DICPCG:  Solving for p, Initial residual = 7.7480684e-05, Final residual = 7.7282636e-07, No Iterations 69
DICPCG:  Solving for p, Initial residual = 7.7275487e-07, Final residual = 8.8872486e-09, No Iterations 72
time step continuity errors : sum local = 5.6943402e-10, global = -1.6709912e-12, cumulative = -8.3823912e-11
DILUPBiCGStab:  Solving for omega, Initial residual = 0.0019357215, Final residual = 3.3528358e-10, No Iterations 3
DILUPBiCGStab:  Solving for k, Initial residual = 0.022746554, Final residual = 6.8153572e-10, No Iterations 3
ExecutionTime = 0.65 s  ClockTime = 0 s

volFieldValue minmaxdomain_scalar write:

volFieldValue minmaxdomain_vector write:

volFieldValue mindomain_scalar write:
    min(region0) of p = -0.0059833769
    min(region0) of k = 3.8744049e-06
    min(region0) of omega = 7.9488852
    min(region0) of nut = 9.4003051e-09

volFieldValue mindomain_vector write:
    min(region0) of U = (0.042550998 -0.00056056593 0)

volFieldValue maxdomain_scalar write:
    max(region0) of p = 0.05384269
    max(region0) of k = 0.014021528
    max(region0) of omega = 7589.6208
    max(region0) of nut = 4.4120029e-06

volFieldValue maxdomain_vector write:
    max(region0) of U = (1.0083196 0.040776258 0)

Time = 13

DILUPBiCGStab:  Solving for Ux, Initial residual = 0.0023071225, Final residual = 3.2989689e-09, No Iterations 5
DILUPBiCGStab:  Solving for Uy, Initial residual = 0.014335463, Final residual = 9.6162024e-09, No Iterations 6
DICPCG:  Solving for p, Initial residual = 0.0072925835, Final residual = 5.8563585e-05, No Iterations 64
DICPCG:  Solving for p, Initial residual = 5.7490128e-05, Final residual = 5.6218037e-07, No Iterations 64
DICPCG:  Solving for p, Initial residual = 5.621484e-07, Final residual = 8.8270994e-09, No Iterations 60
time step continuity errors : sum local = 5.766456e-10, global = 1.5997079e-11, cumulative = -6.7826833e-11
DILUPBiCGStab:  Solving for omega, Initial residual = 0.0015196911, Final residual = 2.2314007e-10, No Iterations 3
DILUPBiCGStab:  Solving for k, Initial residual = 0.020730885, Final residual = 6.2136885e-10, No Iterations 3
ExecutionTime = 0.7 s  ClockTime = 0 s

volFieldValue minmaxdomain_scalar write:

volFieldValue minmaxdomain_vector write:

volFieldValue mindomain_scalar write:
    min(region0) of p = -0.0051516555
    min(region0) of k = 3.5637327e-06
    min(region0) of omega = 7.6182835
    min(region0) of nut = 8.5686847e-09

volFieldValue mindomain_vector write:
    min(region0) of U = (0.041181596 -0.00048018124 0)

volFieldValue maxdomain_scalar write:
    max(region0) of p = 0.053860507
    max(region0) of k = 0.014054972
    max(region0) of omega = 7590.0978
    max(region0) of nut = 5.6903732e-06

volFieldValue maxdomain_vector write:
    max(region0) of U = (1.008484 0.040913131 0)

Time = 14

DILUPBiCGStab:  Solving for Ux, Initial residual = 0.0020188555, Final residual = 2.9118646e-09, No Iterations 5
DILUPBiCGStab:  Solving for Uy, Initial residual = 0.011919374, Final residual = 9.0273933e-09, No Iterations 6
DICPCG:  Solving for p, Initial residual = 0.0064894934, Final residual = 6.3142471e-05, No Iterations 65
DICPCG:  Solving for p, Initial residual = 6.1998787e-05, Final residual = 5.5304107e-07, No Iterations 77
DICPCG:  Solving for p, Initial residual = 5.529886e-07, Final residual = 8.775269e-09, No Iterations 61
time step continuity errors : sum local = 5.8413781e-10, global = -2.3690272e-11, cumulative = -9.1517105e-11
DILUPBiCGStab:  Solving for omega, Initial residual = 0.0012024163, Final residual = 1.5492107e-10, No Iterations 3
DILUPBiCGStab:  Solving for k, Initial residual = 0.019290619, Final residual = 6.3755767e-10, No Iterations 3
ExecutionTime = 0.75 s  ClockTime = 0 s

volFieldValue minmaxdomain_scalar write:

volFieldValue minmaxdomain_vector write:

volFieldValue mindomain_scalar write:
    min(region0) of p = -0.004332058
    min(region0) of k = 3.2926807e-06
    min(region0) of omega = 7.3500559
    min(region0) of nut = 7.9371277e-09

volFieldValue mindomain_vector write:
    min(region0) of U = (0.040114453 -0.00050672607 0)

volFieldValue maxdomain_scalar write:
    max(region0) of p = 0.053929706
    max(region0) of k = 0.014074615
    max(region0) of omega = 7590.3699
    max(region0) of nut = 7.3117238e-06

volFieldValue maxdomain_vector write:
    max(region0) of U = (1.0088383 0.040886892 0)

Time = 15

DILUPBiCGStab:  Solving for Ux, Initial residual = 0.0017857809, Final residual = 7.8474431e-09, No Iterations 5
DILUPBiCGStab:  Solving for Uy, Initial residual = 0.0096850092, Final residual = 8.3324434e-09, No Iterations 5
DICPCG:  Solving for p, Initial residual = 0.0057715122, Final residual = 4.8443551e-05, No Iterations 66
DICPCG:  Solving for p, Initial residual = 4.7398816e-05, Final residual = 4.7326562e-07, No Iterations 58
DICPCG:  Solving for p, Initial residual = 4.7325259e-07, Final residual = 8.7739905e-09, No Iterations 65
time step continuity errors : sum local = 5.9695138e-10, global = -3.2201938e-12, cumulative = -9.4737299e-11
DILUPBiCGStab:  Solving for omega, Initial residual = 0.00095684794, Final residual = 1.0929672e-10, No Iterations 3
DILUPBiCGStab:  Solving for k, Initial residual = 0.018329181, Final residual = 9.4116698e-10, No Iterations 3
ExecutionTime = 0.79 s  ClockTime = 0 s

volFieldValue minmaxdomain_scalar write:

volFieldValue minmaxdomain_vector write:

volFieldValue mindomain_scalar write:
    min(region0) of p = -0.003557753
    min(region0) of k = 3.0538802e-06
    min(region0) of omega = 7.129504
    min(region0) of nut = 7.4619783e-09

volFieldValue mindomain_vector write:
    min(region0) of U = (0.039319453 -0.00050604009 0)

volFieldValue maxdomain_scalar write:
    max(region0) of p = 0.054022349
    max(region0) of k = 0.0140854
    max(region0) of omega = 7590.5298
    max(region0) of nut = 9.2691609e-06

volFieldValue maxdomain_vector write:
    max(region0) of U = (1.0088033 0.041062315 0)

Time = 16

DILUPBiCGStab:  Solving for Ux, Initial residual = 0.0015996214, Final residual = 5.0282477e-09, No Iterations 5
DILUPBiCGStab:  Solving for Uy, Initial residual = 0.0080676049, Final residual = 2.0571991e-09, No Iterations 6
DICPCG:  Solving for p, Initial residual = 0.0051736851, Final residual = 5.1668551e-05, No Iterations 64
DICPCG:  Solving for p, Initial residual = 5.0871647e-05, Final residual = 4.5510281e-07, No Iterations 73
DICPCG:  Solving for p, Initial residual = 4.5508175e-07, Final residual = 9.92009e-09, No Iterations 56
time step continuity errors : sum local = 6.8553563e-10, global = -3.4533761e-11, cumulative = -1.2927106e-10
DILUPBiCGStab:  Solving for omega, Initial residual = 0.00076545762, Final residual = 8.2352048e-11, No Iterations 3
DILUPBiCGStab:  Solving for k, Initial residual = 0.017594462, Final residual = 7.380732e-09, No Iterations 3
ExecutionTime = 0.84 s  ClockTime = 0 s

volFieldValue minmaxdomain_scalar write:

volFieldValue minmaxdomain_vector write:

volFieldValue mindomain_scalar write:
    min(region0) of p = -0.002974616
    min(region0) of k = 2.8422341e-06
    min(region0) of omega = 6.9458266
    min(region0) of nut = 7.1139293e-09

volFieldValue mindomain_vector write:
    min(region0) of U = (0.038775569 -0.00050337943 0)

volFieldValue maxdomain_scalar write:
    max(region0) of p = 0.054036275
    max(region0) of k = 0.014091311
    max(region0) of omega = 7590.6175
    max(region0) of nut = 1.1568324e-05

volFieldValue maxdomain_vector write:
    max(region0) of U = (1.0086897 0.041173833 0)

Time = 17

DILUPBiCGStab:  Solving for Ux, Initial residual = 0.0014401192, Final residual = 3.1591687e-09, No Iterations 5
DILUPBiCGStab:  Solving for Uy, Initial residual = 0.0066532568, Final residual = 1.6773857e-09, No Iterations 6
DICPCG:  Solving for p, Initial residual = 0.0047831548, Final residual = 4.6381656e-05, No Iterations 59
DICPCG:  Solving for p, Initial residual = 4.5750105e-05, Final residual = 4.0867913e-07, No Iterations 65
DICPCG:  Solving for p, Initial residual = 4.0865798e-07, Final residual = 9.848858e-09, No Iterations 56
time step continuity errors : sum local = 6.8991228e-10, global = -7.0029779e-11, cumulative = -1.9930084e-10
DILUPBiCGStab:  Solving for omega, Initial residual = 0.00061481404, Final residual = 6.5494164e-11, No Iterations 3
DILUPBiCGStab:  Solving for k, Initial residual = 0.016908258, Final residual = 9.3807113e-10, No Iterations 3
ExecutionTime = 0.88 s  ClockTime = 0 s

volFieldValue minmaxdomain_scalar write:

volFieldValue minmaxdomain_vector write:

volFieldValue mindomain_scalar write:
    min(region0) of p = -0.002520543
    min(region0) of k = 2.6541863e-06
    min(region0) of omega = 6.7908369
    min(region0) of nut = 6.8728832e-09

volFieldValue mindomain_vector write:
    min(region0) of U = (0.038465483 -0.00052906109 0)

volFieldValue maxdomain_scalar write:
    max(region0) of p = 0.054067176
    max(region0) of k = 0.014095535
    max(region0) of omega = 7590.6656
    max(region0) of nut = 1.4286257e-05

volFieldValue maxdomain_vector write:
    max(region0) of U = (1.0088386 0.041321927 0)

Time = 18

DILUPBiCGStab:  Solving for Ux, Initial residual = 0.0012797643, Final residual = 2.1601892e-09, No Iterations 5
DILUPBiCGStab:  Solving for Uy, Initial residual = 0.0055076928, Final residual = 1.5362907e-09, No Iterations 6
DICPCG:  Solving for p, Initial residual = 0.0045457986, Final residual = 3.9615545e-05, No Iterations 60
DICPCG:  Solving for p, Initial residual = 3.9063156e-05, Final residual = 3.8475326e-07, No Iterations 50
DICPCG:  Solving for p, Initial residual = 3.847444e-07, Final residual = 8.6699925e-09, No Iterations 58
time step continuity errors : sum local = 6.1573493e-10, global = 2.8354593e-11, cumulative = -1.7094625e-10
DILUPBiCGStab:  Solving for omega, Initial residual = 0.00049548806, Final residual = 5.5389565e-11, No Iterations 3
DILUPBiCGStab:  Solving for k, Initial residual = 0.0161915, Final residual = 4.3021594e-10, No Iterations 3
ExecutionTime = 0.93 s  ClockTime = 1 s

volFieldValue minmaxdomain_scalar write:

volFieldValue minmaxdomain_vector write:

volFieldValue mindomain_scalar write:
    min(region0) of p = -0.0021671212
    min(region0) of k = 2.4871745e-06
    min(region0) of omega = 6.6581591
    min(region0) of nut = 6.7248291e-09

volFieldValue mindomain_vector write:
    min(region0) of U = (0.038374044 -0.00053403429 0)

volFieldValue maxdomain_scalar write:
    max(region0) of p = 0.054107996
    max(region0) of k = 0.014098101
    max(region0) of omega = 7590.7
    max(region0) of nut = 1.7376147e-05

volFieldValue maxdomain_vector write:
    max(region0) of U = (1.009032 0.041464223 0)

Time = 19

DILUPBiCGStab:  Solving for Ux, Initial residual = 0.0011873326, Final residual = 9.7615305e-09, No Iterations 4
DILUPBiCGStab:  Solving for Uy, Initial residual = 0.0047730303, Final residual = 1.4504468e-09, No Iterations 6
DICPCG:  Solving for p, Initial residual = 0.0044196725, Final residual = 4.1628898e-05, No Iterations 38
DICPCG:  Solving for p, Initial residual = 4.1578166e-05, Final residual = 3.1269547e-07, No Iterations 72
DICPCG:  Solving for p, Initial residual = 3.1259194e-07, Final residual = 9.1994946e-09, No Iterations 29
time step continuity errors : sum local = 6.5433548e-10, global = 5.7794676e-11, cumulative = -1.1315157e-10
DILUPBiCGStab:  Solving for omega, Initial residual = 0.00040394139, Final residual = 4.8374238e-11, No Iterations 3
DILUPBiCGStab:  Solving for k, Initial residual = 0.015415524, Final residual = 3.5674248e-10, No Iterations 3
ExecutionTime = 0.97 s  ClockTime = 1 s

volFieldValue minmaxdomain_scalar write:

volFieldValue minmaxdomain_vector write:

volFieldValue mindomain_scalar write:
    min(region0) of p = -0.0019998919
    min(region0) of k = 2.3391931e-06
    min(region0) of omega = 6.5427346
    min(region0) of nut = 6.6595322e-09

volFieldValue mindomain_vector write:
    min(region0) of U = (0.038484679 -0.00054606983 0)

volFieldValue maxdomain_scalar write:
    max(region0) of p = 0.054064388
    max(region0) of k = 0.014099863
    max(region0) of omega = 7590.7209
    max(region0) of nut = 2.0735048e-05

volFieldValue maxdomain_vector write:
    max(region0) of U = (1.0092504 0.041571972 0)

Time = 20

DILUPBiCGStab:  Solving for Ux, Initial residual = 0.0011145802, Final residual = 6.1707638e-09, No Iterations 4
DILUPBiCGStab:  Solving for Uy, Initial residual = 0.0047624145, Final residual = 4.8834821e-09, No Iterations 5
DICPCG:  Solving for p, Initial residual = 0.0044680727, Final residual = 4.201906e-05, No Iterations 62
DICPCG:  Solving for p, Initial residual = 4.1574793e-05, Final residual = 3.962014e-07, No Iterations 70
DICPCG:  Solving for p, Initial residual = 3.9617206e-07, Final residual = 9.752077e-09, No Iterations 60
time step continuity errors : sum local = 7.0119523e-10, global = -3.7871633e-12, cumulative = -1.1693873e-10
DILUPBiCGStab:  Solving for omega, Initial residual = 0.00033390194, Final residual = 4.4458696e-11, No Iterations 3
DILUPBiCGStab:  Solving for k, Initial residual = 0.01457881, Final residual = 3.9311764e-10, No Iterations 3
ExecutionTime = 1.01 s  ClockTime = 1 s

volFieldValue minmaxdomain_scalar write:

volFieldValue minmaxdomain_vector write:

volFieldValue mindomain_scalar write:
    min(region0) of p = -0.0018343166
    min(region0) of k = 2.2084374e-06
    min(region0) of omega = 6.4405302
    min(region0) of nut = 6.6691051e-09

volFieldValue mindomain_vector write:
    min(region0) of U = (0.03877911 -0.00053970897 0)

volFieldValue maxdomain_scalar write:
    max(region0) of p = 0.054084233
    max(region0) of k = 0.014100713
    max(region0) of omega = 7590.7352
    max(region0) of nut = 2.4093549e-05

volFieldValue maxdomain_vector write:
    max(region0) of U = (1.0095413 0.041638353 0)

Time = 21

DILUPBiCGStab:  Solving for Ux, Initial residual = 0.0011060863, Final residual = 4.6548257e-09, No Iterations 4
DILUPBiCGStab:  Solving for Uy, Initial residual = 0.0048710655, Final residual = 4.0051135e-09, No Iterations 5
DICPCG:  Solving for p, Initial residual = 0.0046607801, Final residual = 4.5883222e-05, No Iterations 39
DICPCG:  Solving for p, Initial residual = 4.5779356e-05, Final residual = 4.3047828e-07, No Iterations 69
DICPCG:  Solving for p, Initial residual = 4.298414e-07, Final residual = 9.6463544e-09, No Iterations 35
time step continuity errors : sum local = 6.9610663e-10, global = -6.0869811e-11, cumulative = -1.7780854e-10
DILUPBiCGStab:  Solving for omega, Initial residual = 0.00027944165, Final residual = 4.2618615e-11, No Iterations 3
DILUPBiCGStab:  Solving for k, Initial residual = 0.013726728, Final residual = 4.6642768e-10, No Iterations 3
ExecutionTime = 1.05 s  ClockTime = 1 s

volFieldValue minmaxdomain_scalar write:

volFieldValue minmaxdomain_vector write:

volFieldValue mindomain_scalar write:
    min(region0) of p = -0.0017712039
    min(region0) of k = 2.0930286e-06
    min(region0) of omega = 6.3483562
    min(region0) of nut = 6.7467176e-09

volFieldValue mindomain_vector write:
    min(region0) of U = (0.039234802 -0.00053508334 0)

volFieldValue maxdomain_scalar write:
    max(region0) of p = 0.054054839
    max(region0) of k = 0.014101087
    max(region0) of omega = 7590.7421
    max(region0) of nut = 2.6993695e-05

volFieldValue maxdomain_vector write:
    max(region0) of U = (1.0098402 0.041686248 0)

Time = 22

DILUPBiCGStab:  Solving for Ux, Initial residual = 0.0010794758, Final residual = 3.3796963e-09, No Iterations 4
DILUPBiCGStab:  Solving for Uy, Initial residual = 0.0047666118, Final residual = 3.3871791e-09, No Iterations 5
DICPCG:  Solving for p, Initial residual = 0.0045829571, Final residual = 4.3197422e-05, No Iterations 67
DICPCG:  Solving for p, Initial residual = 4.2789306e-05, Final residual = 3.0012909e-07, No Iterations 75
DICPCG:  Solving for p, Initial residual = 3.0010866e-07, Final residual = 9.8616467e-09, No Iterations 24
time step continuity errors : sum local = 7.1818492e-10, global = -1.0939241e-10, cumulative = -2.8720096e-10
DILUPBiCGStab:  Solving for omega, Initial residual = 0.00023647411, Final residual = 4.2297602e-11, No Iterations 3
DILUPBiCGStab:  Solving for k, Initial residual = 0.012701964, Final residual = 5.0701481e-10, No Iterations 3
ExecutionTime = 1.1 s  ClockTime = 1 s

volFieldValue minmaxdomain_scalar write:

volFieldValue minmaxdomain_vector write:

volFieldValue mindomain_scalar write:
    min(region0) of p = -0.0016932817
    min(region0) of k = 1.9908458e-06
    min(region0) of omega = 6.2637761
    min(region0) of nut = 6.8842673e-09

volFieldValue mindomain_vector write:
    min(region0) of U = (0.039814927 -0.00052008764 0)

volFieldValue maxdomain_scalar write:
    max(region0) of p = 0.054067693
    max(region0) of k = 0.014100662
    max(region0) of omega = 7590.7452
    max(region0) of nut = 2.9641013e-05

volFieldValue maxdomain_vector write:
    max(region0) of U = (1.0101109 0.041723626 0)

Time = 23

DILUPBiCGStab:  Solving for Ux, Initial residual = 0.0010404271, Final residual = 2.9116613e-09, No Iterations 4
DILUPBiCGStab:  Solving for Uy, Initial residual = 0.0044185865, Final residual = 7.1678589e-09, No Iterations 5
DICPCG:  Solving for p, Initial residual = 0.0041629922, Final residual = 3.6278977e-05, No Iterations 65
DICPCG:  Solving for p, Initial residual = 3.5862429e-05, Final residual = 2.8749771e-07, No Iterations 75
DICPCG:  Solving for p, Initial residual = 2.874875e-07, Final residual = 9.1921998e-09, No Iterations 27
time step continuity errors : sum local = 6.769915e-10, global = -8.9237695e-11, cumulative = -3.7643865e-10
DILUPBiCGStab:  Solving for omega, Initial residual = 0.00020191178, Final residual = 4.2694311e-11, No Iterations 3
DILUPBiCGStab:  Solving for k, Initial residual = 0.011591213, Final residual = 5.5756858e-10, No Iterations 3
ExecutionTime = 1.14 s  ClockTime = 1 s

volFieldValue minmaxdomain_scalar write:

volFieldValue minmaxdomain_vector write:

volFieldValue mindomain_scalar write:
    min(region0) of p = -0.0016147089
    min(region0) of k = 1.8994762e-06
    min(region0) of omega = 6.1850382
    min(region0) of nut = 7.0721234e-09

volFieldValue mindomain_vector write:
    min(region0) of U = (0.040478518 -0.00051031003 0)

volFieldValue maxdomain_scalar write:
    max(region0) of p = 0.054097072
    max(region0) of k = 0.014099755
    max(region0) of omega = 7590.7417
    max(region0) of nut = 3.1948754e-05

volFieldValue maxdomain_vector write:
    max(region0) of U = (1.0103427 0.041755441 0)

Time = 24

DILUPBiCGStab:  Solving for Ux, Initial residual = 0.00096988001, Final residual = 2.7085082e-09, No Iterations 4
DILUPBiCGStab:  Solving for Uy, Initial residual = 0.0040302375, Final residual = 4.9248267e-09, No Iterations 5
DICPCG:  Solving for p, Initial residual = 0.0039174423, Final residual = 3.449746e-05, No Iterations 72
DICPCG:  Solving for p, Initial residual = 3.4091067e-05, Final residual = 3.374434e-07, No Iterations 51
DICPCG:  Solving for p, Initial residual = 3.3744559e-07, Final residual = 7.7762527e-09, No Iterations 58
time step continuity errors : sum local = 5.7925264e-10, global = 2.6248067e-11, cumulative = -3.5019058e-10
DILUPBiCGStab:  Solving for omega, Initial residual = 0.00017325532, Final residual = 4.3326191e-11, No Iterations 3
DILUPBiCGStab:  Solving for k, Initial residual = 0.010491577, Final residual = 6.5005001e-10, No Iterations 3
ExecutionTime = 1.18 s  ClockTime = 1 s

volFieldValue minmaxdomain_scalar write:

volFieldValue minmaxdomain_vector write:

volFieldValue mindomain_scalar write:
    min(region0) of p = -0.001552591
    min(region0) of k = 1.8162905e-06
    min(region0) of omega = 6.1110207
    min(region0) of nut = 7.299362e-09

volFieldValue mindomain_vector write:
    min(region0) of U = (0.04118502 -0.00050281938 0)

volFieldValue maxdomain_scalar write:
    max(region0) of p = 0.05412152
    max(region0) of k = 0.014098932
    max(region0) of omega = 7590.7343
    max(region0) of nut = 3.4291245e-05

volFieldValue maxdomain_vector write:
    max(region0) of U = (1.0105396 0.041772029 0)

Time = 25

DILUPBiCGStab:  Solving for Ux, Initial residual = 0.00092614498, Final residual = 2.7112827e-09, No Iterations 4
DILUPBiCGStab:  Solving for Uy, Initial residual = 0.003723203, Final residual = 2.9198451e-10, No Iterations 6
DICPCG:  Solving for p, Initial residual = 0.0036784628, Final residual = 3.3644456e-05, No Iterations 72
DICPCG:  Solving for p, Initial residual = 3.3118194e-05, Final residual = 3.0357563e-07, No Iterations 39
DICPCG:  Solving for p, Initial residual = 3.0357626e-07, Final residual = 8.5663517e-09, No Iterations 65
time step continuity errors : sum local = 6.4789249e-10, global = 2.947693e-12, cumulative = -3.4724289e-10
DILUPBiCGStab:  Solving for omega, Initial residual = 0.00014921879, Final residual = 4.4533313e-11, No Iterations 3
DILUPBiCGStab:  Solving for k, Initial residual = 0.0094886805, Final residual = 7.3591739e-10, No Iterations 3
ExecutionTime = 1.22 s  ClockTime = 1 s

volFieldValue minmaxdomain_scalar write:

volFieldValue minmaxdomain_vector write:

volFieldValue mindomain_scalar write:
    min(region0) of p = -0.0014697541
    min(region0) of k = 1.7386253e-06
    min(region0) of omega = 6.0411622
    min(region0) of nut = 7.5555309e-09

volFieldValue mindomain_vector write:
    min(region0) of U = (0.041906284 -0.00048979942 0)

volFieldValue maxdomain_scalar write:
    max(region0) of p = 0.054169021
    max(region0) of k = 0.014098318
    max(region0) of omega = 7590.7276
    max(region0) of nut = 3.644153e-05

volFieldValue maxdomain_vector write:
    max(region0) of U = (1.0107028 0.041779904 0)

Time = 26

DILUPBiCGStab:  Solving for Ux, Initial residual = 0.00088483663, Final residual = 3.3426782e-09, No Iterations 4
DILUPBiCGStab:  Solving for Uy, Initial residual = 0.0035293626, Final residual = 7.3774944e-09, No Iterations 5
DICPCG:  Solving for p, Initial residual = 0.0034216957, Final residual = 2.9193622e-05, No Iterations 72
DICPCG:  Solving for p, Initial residual = 2.8820705e-05, Final residual = 2.7993092e-07, No Iterations 53
DICPCG:  Solving for p, Initial residual = 2.7993026e-07, Final residual = 9.909794e-09, No Iterations 59
time step continuity errors : sum local = 7.5884271e-10, global = -1.0690882e-11, cumulative = -3.5793377e-10
DILUPBiCGStab:  Solving for omega, Initial residual = 0.00012889799, Final residual = 4.6389313e-11, No Iterations 3
DILUPBiCGStab:  Solving for k, Initial residual = 0.008598363, Final residual = 8.6183776e-10, No Iterations 3
ExecutionTime = 1.27 s  ClockTime = 1 s

volFieldValue minmaxdomain_scalar write:

volFieldValue minmaxdomain_vector write:

volFieldValue mindomain_scalar write:
    min(region0) of p = -0.0014160042
    min(region0) of k = 1.6640308e-06
    min(region0) of omega = 5.9753644
    min(region0) of nut = 7.8316356e-09

volFieldValue mindomain_vector write:
    min(region0) of U = (0.042624999 -0.00046772485 0)

volFieldValue maxdomain_scalar write:
    max(region0) of p = 0.054193867
    max(region0) of k = 0.014097849
    max(region0) of omega = 7590.7226
    max(region0) of nut = 3.8584581e-05

volFieldValue maxdomain_vector write:
    max(region0) of U = (1.010829 0.041782024 0)

Time = 27

DILUPBiCGStab:  Solving for Ux, Initial residual = 0.0008393144, Final residual = 4.5892524e-09, No Iterations 4
DILUPBiCGStab:  Solving for Uy, Initial residual = 0.0034926211, Final residual = 4.8097773e-09, No Iterations 5
DICPCG:  Solving for p, Initial residual = 0.003236443, Final residual = 3.1873571e-05, No Iterations 70
DICPCG:  Solving for p, Initial residual = 3.1524216e-05, Final residual = 2.5919197e-07, No Iterations 76
DICPCG:  Solving for p, Initial residual = 2.591869e-07, Final residual = 9.3396179e-09, No Iterations 23
time step continuity errors : sum local = 7.2284226e-10, global = -9.2917058e-11, cumulative = -4.5085083e-10
DILUPBiCGStab:  Solving for omega, Initial residual = 0.0001118188, Final residual = 4.848851e-11, No Iterations 3
DILUPBiCGStab:  Solving for k, Initial residual = 0.0078132014, Final residual = 1.0339243e-09, No Iterations 3
ExecutionTime = 1.31 s  ClockTime = 1 s

volFieldValue minmaxdomain_scalar write:

volFieldValue minmaxdomain_vector write:

volFieldValue mindomain_scalar write:
    min(region0) of p = -0.0013783827
    min(region0) of k = 1.5905298e-06
    min(region0) of omega = 5.9138706
    min(region0) of nut = 8.1204311e-09

volFieldValue mindomain_vector write:
    min(region0) of U = (0.043331284 -0.00044860723 0)

volFieldValue maxdomain_scalar write:
    max(region0) of p = 0.054206395
    max(region0) of k = 0.014097468
    max(region0) of omega = 7590.7188
    max(region0) of nut = 4.0690422e-05

volFieldValue maxdomain_vector write:
    max(region0) of U = (1.0109225 0.041781304 0)

Time = 28

DILUPBiCGStab:  Solving for Ux, Initial residual = 0.00079368361, Final residual = 5.4024374e-09, No Iterations 4
DILUPBiCGStab:  Solving for Uy, Initial residual = 0.0035303139, Final residual = 6.1131719e-09, No Iterations 5
DICPCG:  Solving for p, Initial residual = 0.0030902117, Final residual = 2.6882314e-05, No Iterations 70
DICPCG:  Solving for p, Initial residual = 2.661538e-05, Final residual = 2.5696296e-07, No Iterations 69
DICPCG:  Solving for p, Initial residual = 2.569599e-07, Final residual = 9.5381656e-09, No Iterations 66
time step continuity errors : sum local = 7.4536612e-10, global = -7.7593194e-12, cumulative = -4.5861015e-10
DILUPBiCGStab:  Solving for omega, Initial residual = 9.7479686e-05, Final residual = 5.0693351e-11, No Iterations 3
DILUPBiCGStab:  Solving for k, Initial residual = 0.0071204101, Final residual = 1.1745893e-09, No Iterations 3
ExecutionTime = 1.36 s  ClockTime = 1 s

volFieldValue minmaxdomain_scalar write:

volFieldValue minmaxdomain_vector write:

volFieldValue mindomain_scalar write:
    min(region0) of p = -0.0013477757
    min(region0) of k = 1.516827e-06
    min(region0) of omega = 5.8571241
    min(region0) of nut = 8.4163398e-09

volFieldValue mindomain_vector write:
    min(region0) of U = (0.044019925 -0.00043111848 0)

volFieldValue maxdomain_scalar write:
    max(region0) of p = 0.054216331
    max(region0) of k = 0.014097263
    max(region0) of omega = 7590.7157
    max(region0) of nut = 4.2721754e-05

volFieldValue maxdomain_vector write:
    max(region0) of U = (1.0109902 0.041784598 0)

Time = 29

DILUPBiCGStab:  Solving for Ux, Initial residual = 0.00076328823, Final residual = 5.2508328e-09, No Iterations 4
DILUPBiCGStab:  Solving for Uy, Initial residual = 0.0036139871, Final residual = 5.4404383e-09, No Iterations 5
DICPCG:  Solving for p, Initial residual = 0.002948782, Final residual = 2.4162044e-05, No Iterations 70
DICPCG:  Solving for p, Initial residual = 2.3904433e-05, Final residual = 2.3626099e-07, No Iterations 44
DICPCG:  Solving for p, Initial residual = 2.3626113e-07, Final residual = 8.7502843e-09, No Iterations 49
time step continuity errors : sum local = 6.9092952e-10, global = 2.1655882e-11, cumulative = -4.3695427e-10
DILUPBiCGStab:  Solving for omega, Initial residual = 8.5378613e-05, Final residual = 5.2908696e-11, No Iterations 3
DILUPBiCGStab:  Solving for k, Initial residual = 0.0065084094, Final residual = 1.388571e-09, No Iterations 3
ExecutionTime = 1.4 s  ClockTime = 1 s

volFieldValue minmaxdomain_scalar write:

volFieldValue minmaxdomain_vector write:

volFieldValue mindomain_scalar write:
    min(region0) of p = -0.0013069271
    min(region0) of k = 1.4424212e-06
    min(region0) of omega = 5.8056249
    min(region0) of nut = 8.715157e-09

volFieldValue mindomain_vector write:
    min(region0) of U = (0.044688135 -0.00041690102 0)

volFieldValue maxdomain_scalar write:
    max(region0) of p = 0.054239852
    max(region0) of k = 0.014097929
    max(region0) of omega = 7590.714
    max(region0) of nut = 4.4771557e-05

volFieldValue maxdomain_vector write:
    max(region0) of U = (1.0110404 0.041808762 0)

Time = 30

DILUPBiCGStab:  Solving for Ux, Initial residual = 0.0007364576, Final residual = 4.9123691e-09, No Iterations 4
DILUPBiCGStab:  Solving for Uy, Initial residual = 0.0037297314, Final residual = 4.8374695e-09, No Iterations 5
DICPCG:  Solving for p, Initial residual = 0.0027567952, Final residual = 2.4515532e-05, No Iterations 70
DICPCG:  Solving for p, Initial residual = 2.4264154e-05, Final residual = 2.3667469e-07, No Iterations 38
DICPCG:  Solving for p, Initial residual = 2.366746e-07, Final residual = 9.8457732e-09, No Iterations 65
time step continuity errors : sum local = 7.8523361e-10, global = 9.0413766e-12, cumulative = -4.2791289e-10
DILUPBiCGStab:  Solving for omega, Initial residual = 7.5172658e-05, Final residual = 5.5271736e-11, No Iterations 3
DILUPBiCGStab:  Solving for k, Initial residual = 0.0059661432, Final residual = 1.5372879e-09, No Iterations 3
ExecutionTime = 1.44 s  ClockTime = 1 s

volFieldValue minmaxdomain_scalar write:

volFieldValue minmaxdomain_vector write:

volFieldValue mindomain_scalar write:
    min(region0) of p = -0.0012671559
    min(region0) of k = 1.3675942e-06
    min(region0) of omega = 5.7598017
    min(region0) of nut = 9.013742e-09

volFieldValue mindomain_vector write:
    min(region0) of U = (0.045334425 -0.00040519503 0)

volFieldValue maxdomain_scalar write:
    max(region0) of p = 0.054265777
    max(region0) of k = 0.014099062
    max(region0) of omega = 7590.7195
    max(region0) of nut = 4.6856883e-05

volFieldValue maxdomain_vector write:
    max(region0) of U = (1.0110839 0.041825911 0)

Time = 31

DILUPBiCGStab:  Solving for Ux, Initial residual = 0.00071804336, Final residual = 4.4096933e-09, No Iterations 4
DILUPBiCGStab:  Solving for Uy, Initial residual = 0.0038330169, Final residual = 4.065649e-09, No Iterations 5
DICPCG:  Solving for p, Initial residual = 0.0026375418, Final residual = 2.571537e-05, No Iterations 70
DICPCG:  Solving for p, Initial residual = 2.5442647e-05, Final residual = 2.4969712e-07, No Iterations 60
DICPCG:  Solving for p, Initial residual = 2.4969574e-07, Final residual = 9.8398167e-09, No Iterations 63
time step continuity errors : sum local = 7.9289911e-10, global = 2.5945608e-11, cumulative = -4.0196728e-10
DILUPBiCGStab:  Solving for omega, Initial residual = 6.6515125e-05, Final residual = 5.7665388e-11, No Iterations 3
DILUPBiCGStab:  Solving for k, Initial residual = 0.0054803749, Final residual = 1.7211741e-09, No Iterations 3
ExecutionTime = 1.49 s  ClockTime = 1 s

volFieldValue minmaxdomain_scalar write:

volFieldValue minmaxdomain_vector write:

volFieldValue mindomain_scalar write:
    min(region0) of p = -0.0012219981
    min(region0) of k = 1.2932807e-06
    min(region0) of omega = 5.7199147
    min(region0) of nut = 9.3097761e-09

volFieldValue mindomain_vector write:
    min(region0) of U = (0.045958138 -0.00039569912 0)

volFieldValue maxdomain_scalar write:
    max(region0) of p = 0.054300734
    max(region0) of k = 0.014100271
    max(region0) of omega = 7590.7287
    max(region0) of nut = 4.9008871e-05

volFieldValue maxdomain_vector write:
    max(region0) of U = (1.0111227 0.041838697 0)

Time = 32

DILUPBiCGStab:  Solving for Ux, Initial residual = 0.000709973, Final residual = 4.1586758e-09, No Iterations 4
DILUPBiCGStab:  Solving for Uy, Initial residual = 0.0039042285, Final residual = 4.649286e-09, No Iterations 5
DICPCG:  Solving for p, Initial residual = 0.0026206769, Final residual = 2.534979e-05, No Iterations 70
DICPCG:  Solving for p, Initial residual = 2.5130024e-05, Final residual = 2.0354381e-07, No Iterations 72
DICPCG:  Solving for p, Initial residual = 2.0354038e-07, Final residual = 9.2175472e-09, No Iterations 61
time step continuity errors : sum local = 7.4898484e-10, global = -3.1803684e-11, cumulative = -4.3377097e-10
DILUPBiCGStab:  Solving for omega, Initial residual = 5.9106265e-05, Final residual = 5.9592754e-11, No Iterations 3
DILUPBiCGStab:  Solving for k, Initial residual = 0.0050391328, Final residual = 1.8807407e-09, No Iterations 3
ExecutionTime = 1.53 s  ClockTime = 1 s

volFieldValue minmaxdomain_scalar write:

volFieldValue minmaxdomain_vector write:

volFieldValue mindomain_scalar write:
    min(region0) of p = -0.0011933489
    min(region0) of k = 1.220849e-06
    min(region0) of omega = 5.686
    min(region0) of nut = 9.6015285e-09

volFieldValue mindomain_vector write:
    min(region0) of U = (0.0465589 -0.00038892313 0)

volFieldValue maxdomain_scalar write:
    max(region0) of p = 0.054321457
    max(region0) of k = 0.014101442
    max(region0) of omega = 7590.7385
    max(region0) of nut = 5.1170656e-05

volFieldValue maxdomain_vector write:
    max(region0) of U = (1.0111589 0.041848252 0)

Time = 33

DILUPBiCGStab:  Solving for Ux, Initial residual = 0.0007029488, Final residual = 3.8589528e-09, No Iterations 4
DILUPBiCGStab:  Solving for Uy, Initial residual = 0.0038724284, Final residual = 1.699645e-09, No Iterations 6
DICPCG:  Solving for p, Initial residual = 0.0026778333, Final residual = 2.6697305e-05, No Iterations 71
DICPCG:  Solving for p, Initial residual = 2.6524259e-05, Final residual = 2.4524364e-07, No Iterations 73
DICPCG:  Solving for p, Initial residual = 2.4523544e-07, Final residual = 9.72293e-09, No Iterations 34
time step continuity errors : sum local = 7.9505421e-10, global = -8.8692062e-11, cumulative = -5.2246303e-10
DILUPBiCGStab:  Solving for omega, Initial residual = 5.2809224e-05, Final residual = 6.1344195e-11, No Iterations 3
DILUPBiCGStab:  Solving for k, Initial residual = 0.0046422016, Final residual = 1.9492592e-09, No Iterations 3
ExecutionTime = 1.58 s  ClockTime = 1 s

volFieldValue minmaxdomain_scalar write:

volFieldValue minmaxdomain_vector write:

volFieldValue mindomain_scalar write:
    min(region0) of p = -0.0011881234
    min(region0) of k = 1.1518415e-06
    min(region0) of omega = 5.6578587
    min(region0) of nut = 9.8877456e-09

volFieldValue mindomain_vector write:
    min(region0) of U = (0.047136867 -0.00038473471 0)

volFieldValue maxdomain_scalar write:
    max(region0) of p = 0.054319664
    max(region0) of k = 0.014102525
    max(region0) of omega = 7590.748
    max(region0) of nut = 5.3331323e-05

volFieldValue maxdomain_vector write:
    max(region0) of U = (1.0111985 0.041855296 0)

Time = 34

DILUPBiCGStab:  Solving for Ux, Initial residual = 0.00069638622, Final residual = 3.6855464e-09, No Iterations 4
DILUPBiCGStab:  Solving for Uy, Initial residual = 0.0036902076, Final residual = 1.354786e-09, No Iterations 6
DICPCG:  Solving for p, Initial residual = 0.0027378682, Final residual = 2.6624266e-05, No Iterations 71
DICPCG:  Solving for p, Initial residual = 2.6451174e-05, Final residual = 2.638562e-07, No Iterations 74
DICPCG:  Solving for p, Initial residual = 2.6384632e-07, Final residual = 9.8913945e-09, No Iterations 32
time step continuity errors : sum local = 8.1411655e-10, global = -3.124907e-11, cumulative = -5.537121e-10
DILUPBiCGStab:  Solving for omega, Initial residual = 4.7468693e-05, Final residual = 6.2950195e-11, No Iterations 3
DILUPBiCGStab:  Solving for k, Initial residual = 0.0042851488, Final residual = 2.0660733e-09, No Iterations 3
ExecutionTime = 1.62 s  ClockTime = 1 s

volFieldValue minmaxdomain_scalar write:

volFieldValue minmaxdomain_vector write:

volFieldValue mindomain_scalar write:
    min(region0) of p = -0.0011883707
    min(region0) of k = 1.0877245e-06
    min(region0) of omega = 5.6350833
    min(region0) of nut = 1.0167467e-08

volFieldValue mindomain_vector write:
    min(region0) of U = (0.047692009 -0.0003827997 0)

volFieldValue maxdomain_scalar write:
    max(region0) of p = 0.054312765
    max(region0) of k = 0.014103478
    max(region0) of omega = 7590.7569
    max(region0) of nut = 5.5485104e-05

volFieldValue maxdomain_vector write:
    max(region0) of U = (1.0112403 0.041860255 0)

Time = 35

DILUPBiCGStab:  Solving for Ux, Initial residual = 0.00068738012, Final residual = 3.4899922e-09, No Iterations 4
DILUPBiCGStab:  Solving for Uy, Initial residual = 0.0033310371, Final residual = 1.266258e-09, No Iterations 6
DICPCG:  Solving for p, Initial residual = 0.003044419, Final residual = 2.6707547e-05, No Iterations 43
DICPCG:  Solving for p, Initial residual = 2.6677721e-05, Final residual = 2.4169763e-07, No Iterations 61
DICPCG:  Solving for p, Initial residual = 2.4186399e-07, Final residual = 8.8221678e-09, No Iterations 35
time step continuity errors : sum local = 7.2619074e-10, global = -2.0719356e-11, cumulative = -5.7443146e-10
DILUPBiCGStab:  Solving for omega, Initial residual = 4.2950225e-05, Final residual = 6.4649598e-11, No Iterations 3
DILUPBiCGStab:  Solving for k, Initial residual = 0.0039632445, Final residual = 2.0961846e-09, No Iterations 3
ExecutionTime = 1.66 s  ClockTime = 1 s

volFieldValue minmaxdomain_scalar write:

volFieldValue minmaxdomain_vector write:

volFieldValue mindomain_scalar write:
    min(region0) of p = -0.0012534848
    min(region0) of k = 1.0296888e-06
    min(region0) of omega = 5.6171103
    min(region0) of nut = 1.0440036e-08

volFieldValue mindomain_vector write:
    min(region0) of U = (0.048224861 -0.00038274321 0)

volFieldValue maxdomain_scalar write:
    max(region0) of p = 0.054236421
    max(region0) of k = 0.014104232
    max(region0) of omega = 7590.7646
    max(region0) of nut = 5.7624302e-05

volFieldValue maxdomain_vector write:
    max(region0) of U = (1.0112849 0.041863579 0)

Time = 36

DILUPBiCGStab:  Solving for Ux, Initial residual = 0.00070719695, Final residual = 3.163048e-09, No Iterations 4
DILUPBiCGStab:  Solving for Uy, Initial residual = 0.0034796074, Final residual = 1.1593148e-09, No Iterations 6
DICPCG:  Solving for p, Initial residual = 0.0030985805, Final residual = 3.036503e-05, No Iterations 64
DICPCG:  Solving for p, Initial residual = 3.0175007e-05, Final residual = 2.7176864e-07, No Iterations 68
DICPCG:  Solving for p, Initial residual = 2.7174905e-07, Final residual = 9.7656159e-09, No Iterations 32
time step continuity errors : sum local = 8.0874404e-10, global = -2.3687236e-11, cumulative = -5.9811869e-10
DILUPBiCGStab:  Solving for omega, Initial residual = 3.9188961e-05, Final residual = 6.6413999e-11, No Iterations 3
DILUPBiCGStab:  Solving for k, Initial residual = 0.0036711152, Final residual = 2.057585e-09, No Iterations 3
ExecutionTime = 1.7 s  ClockTime = 1 s

volFieldValue minmaxdomain_scalar write:

volFieldValue minmaxdomain_vector write:

volFieldValue mindomain_scalar write:
    min(region0) of p = -0.0012565646
    min(region0) of k = 9.7852697e-07
    min(region0) of omega = 5.6032851
    min(region0) of nut = 1.070502e-08

volFieldValue mindomain_vector write:
    min(region0) of U = (0.048736053 -0.00038398662 0)

volFieldValue maxdomain_scalar write:
    max(region0) of p = 0.054226192
    max(region0) of k = 0.014104781
    max(region0) of omega = 7590.7707
    max(region0) of nut = 5.9742245e-05

volFieldValue maxdomain_vector write:
    max(region0) of U = (1.0113291 0.041865653 0)

Time = 37

DILUPBiCGStab:  Solving for Ux, Initial residual = 0.00073494129, Final residual = 3.0243991e-09, No Iterations 4
DILUPBiCGStab:  Solving for Uy, Initial residual = 0.0039298144, Final residual = 1.0121925e-09, No Iterations 6
DICPCG:  Solving for p, Initial residual = 0.003069088, Final residual = 2.8922621e-05, No Iterations 69
DICPCG:  Solving for p, Initial residual = 2.8704128e-05, Final residual = 2.0641633e-07, No Iterations 75
DICPCG:  Solving for p, Initial residual = 2.0640835e-07, Final residual = 9.0273971e-09, No Iterations 30
time step continuity errors : sum local = 7.5306056e-10, global = -9.1264606e-11, cumulative = -6.893833e-10
DILUPBiCGStab:  Solving for omega, Initial residual = 3.5955247e-05, Final residual = 6.8212902e-11, No Iterations 3
DILUPBiCGStab:  Solving for k, Initial residual = 0.0034061404, Final residual = 2.0580828e-09, No Iterations 3
ExecutionTime = 1.75 s  ClockTime = 1 s

volFieldValue minmaxdomain_scalar write:

volFieldValue minmaxdomain_vector write:

volFieldValue mindomain_scalar write:
    min(region0) of p = -0.001221403
    min(region0) of k = 9.3458804e-07
    min(region0) of omega = 5.5929191
    min(region0) of nut = 1.0962232e-08

volFieldValue mindomain_vector write:
    min(region0) of U = (0.049226698 -0.00038671951 0)

volFieldValue maxdomain_scalar write:
    max(region0) of p = 0.054262703
    max(region0) of k = 0.014105161
    max(region0) of omega = 7590.7752
    max(region0) of nut = 6.1834619e-05

volFieldValue maxdomain_vector write:
    max(region0) of U = (1.0113707 0.041866194 0)

Time = 38

DILUPBiCGStab:  Solving for Ux, Initial residual = 0.00070234191, Final residual = 2.8814352e-09, No Iterations 4
DILUPBiCGStab:  Solving for Uy, Initial residual = 0.0038740473, Final residual = 7.7818216e-09, No Iterations 5
DICPCG:  Solving for p, Initial residual = 0.0028369897, Final residual = 2.5183206e-05, No Iterations 65
DICPCG:  Solving for p, Initial residual = 2.48259e-05, Final residual = 2.4473312e-07, No Iterations 42
DICPCG:  Solving for p, Initial residual = 2.4473431e-07, Final residual = 8.7198517e-09, No Iterations 53
time step continuity errors : sum local = 7.3781229e-10, global = -3.4494432e-11, cumulative = -7.2387773e-10
DILUPBiCGStab:  Solving for omega, Initial residual = 3.3163205e-05, Final residual = 6.9465794e-11, No Iterations 3
DILUPBiCGStab:  Solving for k, Initial residual = 0.0031643503, Final residual = 2.0687831e-09, No Iterations 3
ExecutionTime = 1.79 s  ClockTime = 1 s

volFieldValue minmaxdomain_scalar write:

volFieldValue minmaxdomain_vector write:

volFieldValue mindomain_scalar write:
    min(region0) of p = -0.0011165149
    min(region0) of k = 8.9780379e-07
    min(region0) of omega = 5.5853439
    min(region0) of nut = 1.1211538e-08

volFieldValue mindomain_vector write:
    min(region0) of U = (0.049697235 -0.00039032164 0)

volFieldValue maxdomain_scalar write:
    max(region0) of p = 0.054378126
    max(region0) of k = 0.014105459
    max(region0) of omega = 7590.7783
    max(region0) of nut = 6.3896672e-05

volFieldValue maxdomain_vector write:
    max(region0) of U = (1.0114051 0.041865292 0)

Time = 39

DILUPBiCGStab:  Solving for Ux, Initial residual = 0.00064466785, Final residual = 2.7313661e-09, No Iterations 4
DILUPBiCGStab:  Solving for Uy, Initial residual = 0.0034367408, Final residual = 5.323647e-09, No Iterations 5
DICPCG:  Solving for p, Initial residual = 0.0026059428, Final residual = 2.5872513e-05, No Iterations 66
DICPCG:  Solving for p, Initial residual = 2.5608418e-05, Final residual = 2.5203695e-07, No Iterations 45
DICPCG:  Solving for p, Initial residual = 2.5203555e-07, Final residual = 9.7540304e-09, No Iterations 51
time step continuity errors : sum local = 8.3362514e-10, global = 1.0371444e-10, cumulative = -6.2016329e-10
DILUPBiCGStab:  Solving for omega, Initial residual = 3.0664103e-05, Final residual = 7.0133458e-11, No Iterations 3
DILUPBiCGStab:  Solving for k, Initial residual = 0.0029432587, Final residual = 1.902413e-09, No Iterations 3
ExecutionTime = 1.83 s  ClockTime = 1 s

volFieldValue minmaxdomain_scalar write:

volFieldValue minmaxdomain_vector write:

volFieldValue mindomain_scalar write:
    min(region0) of p = -0.0010514295
    min(region0) of k = 8.6776171e-07
    min(region0) of omega = 5.5799459
    min(region0) of nut = 1.1452991e-08

volFieldValue mindomain_vector write:
    min(region0) of U = (0.050148939 -0.00039431337 0)

volFieldValue maxdomain_scalar write:
    max(region0) of p = 0.054453728
    max(region0) of k = 0.014105735
    max(region0) of omega = 7590.7807
    max(region0) of nut = 6.5952521e-05

volFieldValue maxdomain_vector write:
    max(region0) of U = (1.0114389 0.041863343 0)

Time = 40

DILUPBiCGStab:  Solving for Ux, Initial residual = 0.00059362337, Final residual = 2.5641391e-09, No Iterations 4
DILUPBiCGStab:  Solving for Uy, Initial residual = 0.0030184255, Final residual = 4.3590745e-09, No Iterations 5
DICPCG:  Solving for p, Initial residual = 0.0023638929, Final residual = 2.106467e-05, No Iterations 67
DICPCG:  Solving for p, Initial residual = 2.0922797e-05, Final residual = 2.0039085e-07, No Iterations 65
DICPCG:  Solving for p, Initial residual = 2.0038739e-07, Final residual = 9.5054882e-09, No Iterations 63
time step continuity errors : sum local = 8.1780251e-10, global = 5.1912799e-12, cumulative = -6.1497201e-10
DILUPBiCGStab:  Solving for omega, Initial residual = 2.8445864e-05, Final residual = 7.0151159e-11, No Iterations 3
DILUPBiCGStab:  Solving for k, Initial residual = 0.0027398685, Final residual = 1.777876e-09, No Iterations 3
ExecutionTime = 1.88 s  ClockTime = 1 s

volFieldValue minmaxdomain_scalar write:

volFieldValue minmaxdomain_vector write:

volFieldValue mindomain_scalar write:
    min(region0) of p = -0.0010186932
    min(region0) of k = 8.4380418e-07
    min(region0) of omega = 5.5761916
    min(region0) of nut = 1.1686536e-08

volFieldValue mindomain_vector write:
    min(region0) of U = (0.050581721 -0.00039811335 0)

volFieldValue maxdomain_scalar write:
    max(region0) of p = 0.054494198
    max(region0) of k = 0.014106033
    max(region0) of omega = 7590.783
    max(region0) of nut = 6.8005935e-05

volFieldValue maxdomain_vector write:
    max(region0) of U = (1.0114663 0.041861201 0)

Time = 41

DILUPBiCGStab:  Solving for Ux, Initial residual = 0.00055306527, Final residual = 2.4477171e-09, No Iterations 4
DILUPBiCGStab:  Solving for Uy, Initial residual = 0.0028435655, Final residual = 4.5607181e-09, No Iterations 5
DICPCG:  Solving for p, Initial residual = 0.0022391944, Final residual = 2.2061668e-05, No Iterations 63
DICPCG:  Solving for p, Initial residual = 2.1961239e-05, Final residual = 2.1202967e-07, No Iterations 74
DICPCG:  Solving for p, Initial residual = 2.1202354e-07, Final residual = 9.0590925e-09, No Iterations 28
time step continuity errors : sum local = 7.8283188e-10, global = -9.2786442e-11, cumulative = -7.0775845e-10
DILUPBiCGStab:  Solving for omega, Initial residual = 2.6480409e-05, Final residual = 6.9038232e-11, No Iterations 3
DILUPBiCGStab:  Solving for k, Initial residual = 0.0025524233, Final residual = 1.6603721e-09, No Iterations 3
ExecutionTime = 1.92 s  ClockTime = 2 s

volFieldValue minmaxdomain_scalar write:

volFieldValue minmaxdomain_vector write:

volFieldValue mindomain_scalar write:
    min(region0) of p = -0.001006138
    min(region0) of k = 8.2513193e-07
    min(region0) of omega = 5.5736415
    min(region0) of nut = 1.1912311e-08

volFieldValue mindomain_vector write:
    min(region0) of U = (0.050996924 -0.00040193129 0)

volFieldValue maxdomain_scalar write:
    max(region0) of p = 0.054510287
    max(region0) of k = 0.014106363
    max(region0) of omega = 7590.7854
    max(region0) of nut = 7.0027085e-05

volFieldValue maxdomain_vector write:
    max(region0) of U = (1.0114842 0.041859256 0)

Time = 42

DILUPBiCGStab:  Solving for Ux, Initial residual = 0.00053038935, Final residual = 2.3303012e-09, No Iterations 4
DILUPBiCGStab:  Solving for Uy, Initial residual = 0.0028587099, Final residual = 6.8122261e-09, No Iterations 5
DICPCG:  Solving for p, Initial residual = 0.002242341, Final residual = 2.2218043e-05, No Iterations 68
DICPCG:  Solving for p, Initial residual = 2.2111803e-05, Final residual = 2.0533716e-07, No Iterations 72
DICPCG:  Solving for p, Initial residual = 2.0533337e-07, Final residual = 9.8410501e-09, No Iterations 45
time step continuity errors : sum local = 8.5444602e-10, global = -8.5861527e-11, cumulative = -7.9361998e-10
DILUPBiCGStab:  Solving for omega, Initial residual = 2.4713209e-05, Final residual = 6.683201e-11, No Iterations 3
DILUPBiCGStab:  Solving for k, Initial residual = 0.0023795166, Final residual = 1.5929255e-09, No Iterations 3
ExecutionTime = 1.97 s  ClockTime = 2 s

volFieldValue minmaxdomain_scalar write:

volFieldValue minmaxdomain_vector write:

volFieldValue mindomain_scalar write:
    min(region0) of p = -0.00099504486
    min(region0) of k = 8.10896e-07
    min(region0) of omega = 5.5719494
    min(region0) of nut = 1.2130405e-08

volFieldValue mindomain_vector write:
    min(region0) of U = (0.051394916 -0.000405719 0)

volFieldValue maxdomain_scalar write:
    max(region0) of p = 0.054520855
    max(region0) of k = 0.014106713
    max(region0) of omega = 7590.7881
    max(region0) of nut = 7.2012697e-05

volFieldValue maxdomain_vector write:
    max(region0) of U = (1.0114938 0.04185771 0)

Time = 43

DILUPBiCGStab:  Solving for Ux, Initial residual = 0.0005280228, Final residual = 2.2804001e-09, No Iterations 4
DILUPBiCGStab:  Solving for Uy, Initial residual = 0.0030202064, Final residual = 9.4366792e-09, No Iterations 5
DICPCG:  Solving for p, Initial residual = 0.0022732842, Final residual = 2.0735792e-05, No Iterations 68
DICPCG:  Solving for p, Initial residual = 2.0628105e-05, Final residual = 2.0087819e-07, No Iterations 73
DICPCG:  Solving for p, Initial residual = 2.0087539e-07, Final residual = 9.595056e-09, No Iterations 60
time step continuity errors : sum local = 8.3732618e-10, global = -3.7766704e-11, cumulative = -8.3138668e-10
DILUPBiCGStab:  Solving for omega, Initial residual = 2.3136617e-05, Final residual = 6.3654404e-11, No Iterations 3
DILUPBiCGStab:  Solving for k, Initial residual = 0.0022197527, Final residual = 1.4151621e-09, No Iterations 3
ExecutionTime = 2.02 s  ClockTime = 2 s

volFieldValue minmaxdomain_scalar write:

volFieldValue minmaxdomain_vector write:

volFieldValue mindomain_scalar write:
    min(region0) of p = -0.00097798046
    min(region0) of k = 8.0026957e-07
    min(region0) of omega = 5.5708539
    min(region0) of nut = 1.2340914e-08

volFieldValue mindomain_vector write:
    min(region0) of U = (0.051776231 -0.00040942093 0)

volFieldValue maxdomain_scalar write:
    max(region0) of p = 0.054534672
    max(region0) of k = 0.014107065
    max(region0) of omega = 7590.7909
    max(region0) of nut = 7.3959904e-05

volFieldValue maxdomain_vector write:
    max(region0) of U = (1.0114989 0.041856535 0)

Time = 44

DILUPBiCGStab:  Solving for Ux, Initial residual = 0.00054820585, Final residual = 9.9886022e-09, No Iterations 4
DILUPBiCGStab:  Solving for Uy, Initial residual = 0.0032212661, Final residual = 3.3557899e-09, No Iterations 5
DICPCG:  Solving for p, Initial residual = 0.0024542234, Final residual = 2.0051926e-05, No Iterations 67
DICPCG:  Solving for p, Initial residual = 1.9954384e-05, Final residual = 1.9379158e-07, No Iterations 74
DICPCG:  Solving for p, Initial residual = 1.9378854e-07, Final residual = 9.4693986e-09, No Iterations 34
time step continuity errors : sum local = 8.302235e-10, global = -1.1073664e-10, cumulative = -9.4212332e-10
DILUPBiCGStab:  Solving for omega, Initial residual = 2.1682877e-05, Final residual = 5.9647985e-11, No Iterations 3
DILUPBiCGStab:  Solving for k, Initial residual = 0.0020718389, Final residual = 1.2503353e-09, No Iterations 3
ExecutionTime = 2.06 s  ClockTime = 2 s

volFieldValue minmaxdomain_scalar write:

volFieldValue minmaxdomain_vector write:

volFieldValue mindomain_scalar write:
    min(region0) of p = -0.00095652706
    min(region0) of k = 7.9249715e-07
    min(region0) of omega = 5.5701636
    min(region0) of nut = 1.2543947e-08

volFieldValue mindomain_vector write:
    min(region0) of U = (0.052141426 -0.00041297999 0)

volFieldValue maxdomain_scalar write:
    max(region0) of p = 0.054552359
    max(region0) of k = 0.0141074
    max(region0) of omega = 7590.7938
    max(region0) of nut = 7.5866026e-05

volFieldValue maxdomain_vector write:
    max(region0) of U = (1.0115014 0.041855575 0)

Time = 45

DILUPBiCGStab:  Solving for Ux, Initial residual = 0.00054425363, Final residual = 9.4292005e-09, No Iterations 4
DILUPBiCGStab:  Solving for Uy, Initial residual = 0.0032472899, Final residual = 8.7959899e-09, No Iterations 5
DICPCG:  Solving for p, Initial residual = 0.0025622552, Final residual = 2.4897199e-05, No Iterations 38
DICPCG:  Solving for p, Initial residual = 2.4866966e-05, Final residual = 2.4677023e-07, No Iterations 55
DICPCG:  Solving for p, Initial residual = 2.4658114e-07, Final residual = 8.7313562e-09, No Iterations 34
time step continuity errors : sum local = 7.6699839e-10, global = 3.7250115e-11, cumulative = -9.0487321e-10
DILUPBiCGStab:  Solving for omega, Initial residual = 2.032308e-05, Final residual = 5.5460602e-11, No Iterations 3
DILUPBiCGStab:  Solving for k, Initial residual = 0.0019347925, Final residual = 1.1289198e-09, No Iterations 3
ExecutionTime = 2.1 s  ClockTime = 2 s

volFieldValue minmaxdomain_scalar write:

volFieldValue minmaxdomain_vector write:

volFieldValue mindomain_scalar write:
    min(region0) of p = -0.00096661671
    min(region0) of k = 7.8692242e-07
    min(region0) of omega = 5.5697429
    min(region0) of nut = 1.2739555e-08

volFieldValue mindomain_vector write:
    min(region0) of U = (0.052490635 -0.0004163434 0)

volFieldValue maxdomain_scalar write:
    max(region0) of p = 0.054536355
    max(region0) of k = 0.014107687
    max(region0) of omega = 7590.7965
    max(region0) of nut = 7.7729308e-05

volFieldValue maxdomain_vector write:
    max(region0) of U = (1.0115013 0.04185468 0)

Time = 46

DILUPBiCGStab:  Solving for Ux, Initial residual = 0.00053682879, Final residual = 8.652048e-09, No Iterations 4
DILUPBiCGStab:  Solving for Uy, Initial residual = 0.0030465253, Final residual = 8.0154183e-09, No Iterations 5
DICPCG:  Solving for p, Initial residual = 0.0025780918, Final residual = 2.3975652e-05, No Iterations 38
DICPCG:  Solving for p, Initial residual = 2.3949161e-05, Final residual = 2.2405145e-07, No Iterations 66
DICPCG:  Solving for p, Initial residual = 2.2399556e-07, Final residual = 9.167127e-09, No Iterations 34
time step continuity errors : sum local = 8.0629116e-10, global = -6.1717866e-11, cumulative = -9.6659107e-10
DILUPBiCGStab:  Solving for omega, Initial residual = 1.9079723e-05, Final residual = 5.105373e-11, No Iterations 3
DILUPBiCGStab:  Solving for k, Initial residual = 0.0018077092, Final residual = 1.0059884e-09, No Iterations 3
ExecutionTime = 2.14 s  ClockTime = 2 s

volFieldValue minmaxdomain_scalar write:

volFieldValue minmaxdomain_vector write:

volFieldValue mindomain_scalar write:
    min(region0) of p = -0.00098968
    min(region0) of k = 7.8299881e-07
    min(region0) of omega = 5.5694984
    min(region0) of nut = 1.2927911e-08

volFieldValue mindomain_vector write:
    min(region0) of U = (0.052824852 -0.00041930458 0)

volFieldValue maxdomain_scalar write:
    max(region0) of p = 0.054505017
    max(region0) of k = 0.01410789
    max(region0) of omega = 7590.7989
    max(region0) of nut = 7.9547358e-05

volFieldValue maxdomain_vector write:
    max(region0) of U = (1.0114982 0.041853879 0)

Time = 47

DILUPBiCGStab:  Solving for Ux, Initial residual = 0.00052072787, Final residual = 7.5507573e-09, No Iterations 4
DILUPBiCGStab:  Solving for Uy, Initial residual = 0.0026642632, Final residual = 8.3855868e-10, No Iterations 6
DICPCG:  Solving for p, Initial residual = 0.0027866789, Final residual = 2.6987778e-05, No Iterations 64
DICPCG:  Solving for p, Initial residual = 2.7029757e-05, Final residual = 1.9604584e-07, No Iterations 70
DICPCG:  Solving for p, Initial residual = 1.9607714e-07, Final residual = 8.9722462e-09, No Iterations 17
time step continuity errors : sum local = 7.8746384e-10, global = -3.601872e-11, cumulative = -1.0026098e-09
DILUPBiCGStab:  Solving for omega, Initial residual = 1.7909805e-05, Final residual = 4.718368e-11, No Iterations 3
DILUPBiCGStab:  Solving for k, Initial residual = 0.0016893689, Final residual = 9.4089765e-10, No Iterations 3
ExecutionTime = 2.18 s  ClockTime = 2 s

volFieldValue minmaxdomain_scalar write:

volFieldValue minmaxdomain_vector write:

volFieldValue mindomain_scalar write:
    min(region0) of p = -0.0010405403
    min(region0) of k = 7.8028734e-07
    min(region0) of omega = 5.5693672
    min(region0) of nut = 1.3109206e-08

volFieldValue mindomain_vector write:
    min(region0) of U = (0.053144715 -0.00042193033 0)

volFieldValue maxdomain_scalar write:
    max(region0) of p = 0.054443933
    max(region0) of k = 0.014107968
    max(region0) of omega = 7590.8005
    max(region0) of nut = 8.1318975e-05

volFieldValue maxdomain_vector write:
    max(region0) of U = (1.0114948 0.041853102 0)

Time = 48

DILUPBiCGStab:  Solving for Ux, Initial residual = 0.0005146734, Final residual = 7.4531781e-09, No Iterations 4
DILUPBiCGStab:  Solving for Uy, Initial residual = 0.0029230904, Final residual = 5.8452984e-09, No Iterations 5
DICPCG:  Solving for p, Initial residual = 0.0025751114, Final residual = 2.2217655e-05, No Iterations 62
DICPCG:  Solving for p, Initial residual = 2.2089502e-05, Final residual = 1.9547196e-07, No Iterations 74
DICPCG:  Solving for p, Initial residual = 1.954649e-07, Final residual = 9.4118302e-09, No Iterations 21
time step continuity errors : sum local = 8.3061406e-10, global = -1.2975018e-10, cumulative = -1.13236e-09
DILUPBiCGStab:  Solving for omega, Initial residual = 1.6851435e-05, Final residual = 4.3015272e-11, No Iterations 3
DILUPBiCGStab:  Solving for k, Initial residual = 0.0015793515, Final residual = 8.7020091e-10, No Iterations 3
ExecutionTime = 2.22 s  ClockTime = 2 s

volFieldValue minmaxdomain_scalar write:

volFieldValue minmaxdomain_vector write:

volFieldValue mindomain_scalar write:
    min(region0) of p = -0.00099489895
    min(region0) of k = 7.7844682e-07
    min(region0) of omega = 5.5693093
    min(region0) of nut = 1.3283634e-08

volFieldValue mindomain_vector write:
    min(region0) of U = (0.053450799 -0.00042422048 0)

volFieldValue maxdomain_scalar write:
    max(region0) of p = 0.054489191
    max(region0) of k = 0.014107958
    max(region0) of omega = 7590.8011
    max(region0) of nut = 8.3042911e-05

volFieldValue maxdomain_vector write:
    max(region0) of U = (1.0114891 0.041852085 0)

Time = 49

DILUPBiCGStab:  Solving for Ux, Initial residual = 0.00048541196, Final residual = 6.7129601e-09, No Iterations 4
DILUPBiCGStab:  Solving for Uy, Initial residual = 0.0029415878, Final residual = 5.9315888e-09, No Iterations 5
DICPCG:  Solving for p, Initial residual = 0.0023936975, Final residual = 2.2276152e-05, No Iterations 52
DICPCG:  Solving for p, Initial residual = 2.2167257e-05, Final residual = 2.0723973e-07, No Iterations 53
DICPCG:  Solving for p, Initial residual = 2.0723797e-07, Final residual = 9.2196583e-09, No Iterations 60
time step continuity errors : sum local = 8.1746075e-10, global = -4.7439801e-11, cumulative = -1.1797998e-09
DILUPBiCGStab:  Solving for omega, Initial residual = 1.5816996e-05, Final residual = 3.9088045e-11, No Iterations 3
DILUPBiCGStab:  Solving for k, Initial residual = 0.0014772375, Final residual = 7.6396917e-10, No Iterations 3
ExecutionTime = 2.26 s  ClockTime = 2 s

volFieldValue minmaxdomain_scalar write:

volFieldValue minmaxdomain_vector write:

volFieldValue mindomain_scalar write:
    min(region0) of p = -0.00094674248
    min(region0) of k = 7.7721918e-07
    min(region0) of omega = 5.5692975
    min(region0) of nut = 1.3451428e-08

volFieldValue mindomain_vector write:
    min(region0) of U = (0.053743849 -0.00042662471 0)

volFieldValue maxdomain_scalar write:
    max(region0) of p = 0.054543671
    max(region0) of k = 0.014107904
    max(region0) of omega = 7590.8011
    max(region0) of nut = 8.4718385e-05

volFieldValue maxdomain_vector write:
    max(region0) of U = (1.0114862 0.041850321 0)

Time = 50

[...]
volFieldValue minmaxdomain_scalar write:

volFieldValue minmaxdomain_vector write:

volFieldValue mindomain_scalar write:
    min(region0) of p = -0.00087633138
    min(region0) of k = 7.7497571e-07
    min(region0) of omega = 5.5690057
    min(region0) of nut = 1.7384761e-08

volFieldValue mindomain_vector write:
    min(region0) of U = (0.060226162 -0.00043023511 0)

volFieldValue maxdomain_scalar write:
    max(region0) of p = 0.054753082
    max(region0) of k = 0.01410862
    max(region0) of omega = 7590.8063
    max(region0) of nut = 0.00012448617

volFieldValue maxdomain_vector write:
    max(region0) of U = (1.0114371 0.041832217 0)

Time = 1994

DILUPBiCGStab:  Solving for Ux, Initial residual = 0.00018516078, Final residual = 2.2597463e-09, No Iterations 3
DILUPBiCGStab:  Solving for Uy, Initial residual = 0.001885757, Final residual = 4.8194587e-09, No Iterations 3
DICPCG:  Solving for p, Initial residual = 0.0012722872, Final residual = 1.2359668e-05, No Iterations 39
DICPCG:  Solving for p, Initial residual = 1.2361788e-05, Final residual = 1.0625879e-07, No Iterations 76
DICPCG:  Solving for p, Initial residual = 1.0625718e-07, Final residual = 9.2349902e-09, No Iterations 12
time step continuity errors : sum local = 8.4211018e-10, global = -2.6928348e-11, cumulative = 9.1191015e-09
DILUPBiCGStab:  Solving for omega, Initial residual = 1.2534861e-07, Final residual = 1.0429422e-13, No Iterations 3
DILUPBiCGStab:  Solving for k, Initial residual = 6.6500631e-07, Final residual = 4.3918475e-13, No Iterations 3
ExecutionTime = 80.61 s  ClockTime = 80 s

volFieldValue minmaxdomain_scalar write:

volFieldValue minmaxdomain_vector write:

volFieldValue mindomain_scalar write:
    min(region0) of p = -0.00087614059
    min(region0) of k = 7.7498215e-07
    min(region0) of omega = 5.5690535
    min(region0) of nut = 1.7384729e-08

volFieldValue mindomain_vector write:
    min(region0) of U = (0.060226075 -0.00042984401 0)

volFieldValue maxdomain_scalar write:
    max(region0) of p = 0.054749634
    max(region0) of k = 0.014108724
    max(region0) of omega = 7590.8064
    max(region0) of nut = 0.00012448556

volFieldValue maxdomain_vector write:
    max(region0) of U = (1.011433 0.041832284 0)

Time = 1995

DILUPBiCGStab:  Solving for Ux, Initial residual = 0.00018057382, Final residual = 1.8949566e-09, No Iterations 3
DILUPBiCGStab:  Solving for Uy, Initial residual = 0.0019388276, Final residual = 4.4377029e-09, No Iterations 3
DICPCG:  Solving for p, Initial residual = 0.0011795027, Final residual = 1.1459881e-05, No Iterations 61
DICPCG:  Solving for p, Initial residual = 1.1488702e-05, Final residual = 9.6761539e-08, No Iterations 67
DICPCG:  Solving for p, Initial residual = 9.6763367e-08, Final residual = 8.8388332e-09, No Iterations 30
time step continuity errors : sum local = 8.0398184e-10, global = 7.7642193e-11, cumulative = 9.1967437e-09
DILUPBiCGStab:  Solving for omega, Initial residual = 1.2094599e-07, Final residual = 5.817264e-14, No Iterations 3
DILUPBiCGStab:  Solving for k, Initial residual = 6.7874287e-07, Final residual = 4.0635294e-13, No Iterations 3
ExecutionTime = 80.65 s  ClockTime = 80 s

volFieldValue minmaxdomain_scalar write:

volFieldValue minmaxdomain_vector write:

volFieldValue mindomain_scalar write:
    min(region0) of p = -0.00087613032
    min(region0) of k = 7.7498571e-07
    min(region0) of omega = 5.5690781
    min(region0) of nut = 1.738476e-08

volFieldValue mindomain_vector write:
    min(region0) of U = (0.060226296 -0.0004297566 0)

volFieldValue maxdomain_scalar write:
    max(region0) of p = 0.05472307
    max(region0) of k = 0.014108883
    max(region0) of omega = 7590.8073
    max(region0) of nut = 0.00012448521

volFieldValue maxdomain_vector write:
    max(region0) of U = (1.0114263 0.041832923 0)

Time = 1996

DILUPBiCGStab:  Solving for Ux, Initial residual = 0.00019363787, Final residual = 6.0016581e-09, No Iterations 3
DILUPBiCGStab:  Solving for Uy, Initial residual = 0.002025486, Final residual = 4.9819085e-09, No Iterations 3
DICPCG:  Solving for p, Initial residual = 0.0011810065, Final residual = 1.1654446e-05, No Iterations 37
DICPCG:  Solving for p, Initial residual = 1.1658755e-05, Final residual = 1.1050019e-07, No Iterations 65
DICPCG:  Solving for p, Initial residual = 1.1053011e-07, Final residual = 9.3579256e-09, No Iterations 22
time step continuity errors : sum local = 8.5060294e-10, global = -9.6883289e-11, cumulative = 9.0998604e-09
DILUPBiCGStab:  Solving for omega, Initial residual = 1.2941089e-07, Final residual = 7.2764698e-14, No Iterations 3
DILUPBiCGStab:  Solving for k, Initial residual = 6.7149091e-07, Final residual = 3.5457704e-13, No Iterations 3
ExecutionTime = 80.69 s  ClockTime = 80 s

volFieldValue minmaxdomain_scalar write:

volFieldValue minmaxdomain_vector write:

volFieldValue mindomain_scalar write:
    min(region0) of p = -0.00087572976
    min(region0) of k = 7.749857e-07
    min(region0) of omega = 5.5690747
    min(region0) of nut = 1.7384801e-08

volFieldValue mindomain_vector write:
    min(region0) of U = (0.060226391 -0.00042976987 0)

volFieldValue maxdomain_scalar write:
    max(region0) of p = 0.054718109
    max(region0) of k = 0.014109067
    max(region0) of omega = 7590.8086
    max(region0) of nut = 0.00012448519

volFieldValue maxdomain_vector write:
    max(region0) of U = (1.0114163 0.041833875 0)

Time = 1997

DILUPBiCGStab:  Solving for Ux, Initial residual = 0.00019863664, Final residual = 4.3185427e-09, No Iterations 3
DILUPBiCGStab:  Solving for Uy, Initial residual = 0.0020359169, Final residual = 4.9315203e-09, No Iterations 3
DICPCG:  Solving for p, Initial residual = 0.0012225823, Final residual = 1.0812188e-05, No Iterations 36
DICPCG:  Solving for p, Initial residual = 1.081533e-05, Final residual = 9.8099502e-08, No Iterations 72
DICPCG:  Solving for p, Initial residual = 9.8108063e-08, Final residual = 9.9014224e-09, No Iterations 18
time step continuity errors : sum local = 8.9958159e-10, global = 6.9094896e-12, cumulative = 9.1067699e-09
DILUPBiCGStab:  Solving for omega, Initial residual = 1.4504263e-07, Final residual = 5.60786e-14, No Iterations 3
DILUPBiCGStab:  Solving for k, Initial residual = 6.7285591e-07, Final residual = 3.1452289e-13, No Iterations 3
ExecutionTime = 80.73 s  ClockTime = 80 s

volFieldValue minmaxdomain_scalar write:

volFieldValue minmaxdomain_vector write:

volFieldValue mindomain_scalar write:
    min(region0) of p = -0.00087529428
    min(region0) of k = 7.7498227e-07
    min(region0) of omega = 5.5690452
    min(region0) of nut = 1.7384844e-08

volFieldValue mindomain_vector write:
    min(region0) of U = (0.060226465 -0.0004299377 0)

volFieldValue maxdomain_scalar write:
    max(region0) of p = 0.054718959
    max(region0) of k = 0.014109254
    max(region0) of omega = 7590.8101
    max(region0) of nut = 0.00012448552

volFieldValue maxdomain_vector write:
    max(region0) of U = (1.0114071 0.041834802 0)

Time = 1998

DILUPBiCGStab:  Solving for Ux, Initial residual = 0.00019558317, Final residual = 6.6816063e-09, No Iterations 3
DILUPBiCGStab:  Solving for Uy, Initial residual = 0.0021052367, Final residual = 6.4116735e-09, No Iterations 3
DICPCG:  Solving for p, Initial residual = 0.0011326646, Final residual = 1.0562516e-05, No Iterations 52
DICPCG:  Solving for p, Initial residual = 1.0552231e-05, Final residual = 7.5209988e-08, No Iterations 70
DICPCG:  Solving for p, Initial residual = 7.5206253e-08, Final residual = 8.7553225e-09, No Iterations 8
time step continuity errors : sum local = 7.9627039e-10, global = -3.0819919e-11, cumulative = 9.07595e-09
DILUPBiCGStab:  Solving for omega, Initial residual = 1.6425449e-07, Final residual = 4.739772e-14, No Iterations 3
DILUPBiCGStab:  Solving for k, Initial residual = 6.5267368e-07, Final residual = 3.3199535e-13, No Iterations 3
ExecutionTime = 80.76 s  ClockTime = 80 s

volFieldValue minmaxdomain_scalar write:

volFieldValue minmaxdomain_vector write:

volFieldValue mindomain_scalar write:
    min(region0) of p = -0.00087470354
    min(region0) of k = 7.7497633e-07
    min(region0) of omega = 5.5689973
    min(region0) of nut = 1.7384878e-08

volFieldValue mindomain_vector write:
    min(region0) of U = (0.060226497 -0.0004300833 0)

volFieldValue maxdomain_scalar write:
    max(region0) of p = 0.05472868
    max(region0) of k = 0.014109431
    max(region0) of omega = 7590.8116
    max(region0) of nut = 0.00012448608

volFieldValue maxdomain_vector write:
    max(region0) of U = (1.0114 0.041835543 0)

Time = 1999

DILUPBiCGStab:  Solving for Ux, Initial residual = 0.0002022797, Final residual = 6.7748432e-09, No Iterations 3
DILUPBiCGStab:  Solving for Uy, Initial residual = 0.0021829429, Final residual = 7.6363344e-09, No Iterations 3
DICPCG:  Solving for p, Initial residual = 0.0011412988, Final residual = 1.0790502e-05, No Iterations 60
DICPCG:  Solving for p, Initial residual = 1.0778345e-05, Final residual = 1.0276894e-07, No Iterations 68
DICPCG:  Solving for p, Initial residual = 1.0276527e-07, Final residual = 8.6598145e-09, No Iterations 17
time step continuity errors : sum local = 7.8848237e-10, global = -4.1460498e-11, cumulative = 9.0344895e-09
DILUPBiCGStab:  Solving for omega, Initial residual = 1.7019742e-07, Final residual = 5.3049908e-14, No Iterations 3
DILUPBiCGStab:  Solving for k, Initial residual = 6.3526546e-07, Final residual = 4.373153e-13, No Iterations 3
ExecutionTime = 80.79 s  ClockTime = 80 s

volFieldValue minmaxdomain_scalar write:

volFieldValue minmaxdomain_vector write:

volFieldValue mindomain_scalar write:
    min(region0) of p = -0.00087441176
    min(region0) of k = 7.7496911e-07
    min(region0) of omega = 5.5689403
    min(region0) of nut = 1.7384901e-08

volFieldValue mindomain_vector write:
    min(region0) of U = (0.060226506 -0.00043016686 0)

volFieldValue maxdomain_scalar write:
    max(region0) of p = 0.054733083
    max(region0) of k = 0.014109579
    max(region0) of omega = 7590.813
    max(region0) of nut = 0.00012448668

volFieldValue maxdomain_vector write:
    max(region0) of U = (1.011399 0.041836061 0)

Time = 2000

DILUPBiCGStab:  Solving for Ux, Initial residual = 0.00021904067, Final residual = 3.7918685e-09, No Iterations 3
DILUPBiCGStab:  Solving for Uy, Initial residual = 0.0021043536, Final residual = 9.5046915e-09, No Iterations 3
DICPCG:  Solving for p, Initial residual = 0.0013919592, Final residual = 1.2930893e-05, No Iterations 69
DICPCG:  Solving for p, Initial residual = 1.2974339e-05, Final residual = 1.2604381e-07, No Iterations 60
DICPCG:  Solving for p, Initial residual = 1.260449e-07, Final residual = 9.7362869e-09, No Iterations 56
time step continuity errors : sum local = 8.8341551e-10, global = 5.9974676e-11, cumulative = 9.0944642e-09
DILUPBiCGStab:  Solving for omega, Initial residual = 1.731984e-07, Final residual = 4.2767105e-14, No Iterations 3
DILUPBiCGStab:  Solving for k, Initial residual = 6.3723426e-07, Final residual = 5.6678507e-13, No Iterations 3
ExecutionTime = 80.85 s  ClockTime = 80 s

volFieldValue minmaxdomain_scalar write:

volFieldValue minmaxdomain_vector write:

volFieldValue mindomain_scalar write:
    min(region0) of p = -0.00087452847
    min(region0) of k = 7.7496169e-07
    min(region0) of omega = 5.568883
    min(region0) of nut = 1.738489e-08

volFieldValue mindomain_vector write:
    min(region0) of U = (0.060226401 -0.0004301695 0)

volFieldValue maxdomain_scalar write:
    max(region0) of p = 0.05468518
    max(region0) of k = 0.014109669
    max(region0) of omega = 7590.8142
    max(region0) of nut = 0.00012448713

volFieldValue maxdomain_vector write:
    max(region0) of U = (1.0114051 0.041836434 0)

End

/*---------------------------------------------------------------------------*\
| =========                 |                                                 |
| \\      /  F ield         | OpenFOAM: The Open Source CFD Toolbox           |
|  \\    /   O peration     | Version:  2206                                  |
|   \\  /    A nd           | Website:  www.openfoam.com                      |
|    \\/     M anipulation  |                                                 |
\*---------------------------------------------------------------------------*/
Build  : _da9441b0-20260127 OPENFOAM=2206 patch=260127 version=2206
Arch   : "LSB;label=32;scalar=64"
Exec   : simpleFoam -postProcess -func wallShearStress -latestTime
Date   : Jun 12 2026
Time   : 10:23:54
Host   : NotebookdoDan
PID    : 67805
I/O    : uncollated
Case   : /home/danilom/Trabalho_Modelagem_Turbulencia/GT2/RANS/KOmegaSST_highRE
nProcs : 1
trapFpe: Floating point exception trapping enabled (FOAM_SIGFPE).
fileModificationChecking : Monitoring run-time modified files using timeStampMaster (fileModificationSkew 5, maxFileModificationPolls 20)
allowSystemOperations : Allowing user-supplied system call operations

// * * * * * * * * * * * * * * * * * * * * * * * * * * * * * * * * * * * * * //
Create time

--> FOAM Warning : 
    From static Foam::IOstreamOption::compressionType Foam::IOstreamOption::compressionEnum(const Foam::word&, compressionType)
    in file db/IOstreams/IOstreams/IOstreamOption.C at line 115
    Unknown compression specifier 'uncompressed', using compression off
Create mesh for time = 2000


SIMPLE: convergence criteria
    field p	 tolerance 1e-06
    field U	 tolerance 1e-06
    field "(k|omega)"	 tolerance 1e-06

wallShearStress wallShearStress:
    processing all wall patches

Time = 2000
Reading field p

Reading field U

Reading/calculating face flux field phi

Selecting incompressible transport model Newtonian
Selecting turbulence model type RAS
Selecting RAS turbulence model kOmegaSST
Selecting patchDistMethod meshWave
RAS
{
    RASModel        kOmegaSST;
    turbulence      on;
    printCoeffs     on;
    alphaK1         0.85;
    alphaK2         1;
    alphaOmega1     0.5;
    alphaOmega2     0.856;
    gamma1          0.55555556;
    gamma2          0.44;
    beta1           0.075;
    beta2           0.0828;
    betaStar        0.09;
    a1              0.31;
    b1              1;
    c1              10;
    F3              false;
    decayControl    false;
    kInf            0;
    omegaInf        0;
}

No MRF models present

No finite volume options present
wallShearStress wallShearStress write:
    writing field wallShearStress
    min/max(bottom) = (-0.031590407 -0.001483617 0), (-0.002255357 4.5095313e-07 0)

End

/*---------------------------------------------------------------------------*\
| =========                 |                                                 |
| \\      /  F ield         | OpenFOAM: The Open Source CFD Toolbox           |
|  \\    /   O peration     | Version:  2206                                  |
|   \\  /    A nd           | Website:  www.openfoam.com                      |
|    \\/     M anipulation  |                                                 |
\*---------------------------------------------------------------------------*/
Build  : _da9441b0-20260127 OPENFOAM=2206 patch=260127 version=2206
Arch   : "LSB;label=32;scalar=64"
Exec   : simpleFoam -postProcess -func yPlus -latestTime
Date   : Jun 12 2026
Time   : 10:23:54
Host   : NotebookdoDan
PID    : 67808
I/O    : uncollated
Case   : /home/danilom/Trabalho_Modelagem_Turbulencia/GT2/RANS/KOmegaSST_highRE
nProcs : 1
trapFpe: Floating point exception trapping enabled (FOAM_SIGFPE).
fileModificationChecking : Monitoring run-time modified files using timeStampMaster (fileModificationSkew 5, maxFileModificationPolls 20)
allowSystemOperations : Allowing user-supplied system call operations

// * * * * * * * * * * * * * * * * * * * * * * * * * * * * * * * * * * * * * //
Create time

--> FOAM Warning : 
    From static Foam::IOstreamOption::compressionType Foam::IOstreamOption::compressionEnum(const Foam::word&, compressionType)
    in file db/IOstreams/IOstreams/IOstreamOption.C at line 115
    Unknown compression specifier 'uncompressed', using compression off
Create mesh for time = 2000


SIMPLE: convergence criteria
    field p	 tolerance 1e-06
    field U	 tolerance 1e-06
    field "(k|omega)"	 tolerance 1e-06

Time = 2000
Reading field p

Reading field U

Reading/calculating face flux field phi

Selecting incompressible transport model Newtonian
Selecting turbulence model type RAS
Selecting RAS turbulence model kOmegaSST
Selecting patchDistMethod meshWave
RAS
{
    RASModel        kOmegaSST;
    turbulence      on;
    printCoeffs     on;
    alphaK1         0.85;
    alphaK2         1;
    alphaOmega1     0.5;
    alphaOmega2     0.856;
    gamma1          0.55555556;
    gamma2          0.44;
    beta1           0.075;
    beta2           0.0828;
    betaStar        0.09;
    a1              0.31;
    b1              1;
    c1              10;
    F3              false;
    decayControl    false;
    kInf            0;
    omegaInf        0;
}

No MRF models present

No finite volume options present
yPlus yPlus write:
    writing field yPlus
    patch bottom y+ : min = 1.268521, max = 4.7458138, average = 1.633666

End

/*---------------------------------------------------------------------------*\
| =========                 |                                                 |
| \\      /  F ield         | OpenFOAM: The Open Source CFD Toolbox           |
|  \\    /   O peration     | Version:  2206                                  |
|   \\  /    A nd           | Website:  www.openfoam.com                      |
|    \\/     M anipulation  |                                                 |
\*---------------------------------------------------------------------------*/
Build  : _da9441b0-20260127 OPENFOAM=2206 patch=260127 version=2206
Arch   : "LSB;label=32;scalar=64"
Exec   : simpleFoam -postProcess -func sampleDict -latestTime
Date   : Jun 12 2026
Time   : 10:23:54
Host   : NotebookdoDan
PID    : 67811
I/O    : uncollated
Case   : /home/danilom/Trabalho_Modelagem_Turbulencia/GT2/RANS/KOmegaSST_highRE
nProcs : 1
trapFpe: Floating point exception trapping enabled (FOAM_SIGFPE).
fileModificationChecking : Monitoring run-time modified files using timeStampMaster (fileModificationSkew 5, maxFileModificationPolls 20)
allowSystemOperations : Allowing user-supplied system call operations

// * * * * * * * * * * * * * * * * * * * * * * * * * * * * * * * * * * * * * //
Create time

--> FOAM Warning : 
    From static Foam::IOstreamOption::compressionType Foam::IOstreamOption::compressionEnum(const Foam::word&, compressionType)
    in file db/IOstreams/IOstreams/IOstreamOption.C at line 115
    Unknown compression specifier 'uncompressed', using compression off
Create mesh for time = 2000


SIMPLE: convergence criteria
    field p	 tolerance 1e-06
    field U	 tolerance 1e-06
    field "(k|omega)"	 tolerance 1e-06

Sampled set:
    profile0 -> raw
    profile1 -> raw
    profile3 -> raw

Time = 2000
Reading field p

Reading field U

Reading/calculating face flux field phi

Selecting incompressible transport model Newtonian
Selecting turbulence model type RAS
Selecting RAS turbulence model kOmegaSST
Selecting patchDistMethod meshWave
RAS
{
    RASModel        kOmegaSST;
    turbulence      on;
    printCoeffs     on;
    alphaK1         0.85;
    alphaK2         1;
    alphaOmega1     0.5;
    alphaOmega2     0.856;
    gamma1          0.55555556;
    gamma2          0.44;
    beta1           0.075;
    beta2           0.0828;
    betaStar        0.09;
    a1              0.31;
    b1              1;
    c1              10;
    F3              false;
    decayControl    false;
    kInf            0;
    omegaInf        0;
}

No MRF models present

No finite volume options present
--> FOAM Warning : 
    From Foam::IOobjectList Foam::sampledSets::preCheckFields(unsigned int)
    in file sampledSet/sampledSets/sampledSets.C at line 219
    
Cannot find registered field matching 1(wallShearStress)

End

